<?xml version="1.0" encoding="UTF-8"?>

<!-- generated on 2021-09-07 13:22:16 by Eclipse SUMO netconvert Version v1_10_0+0545-84307969428
<configuration xmlns:xsi="http://www.w3.org/2001/XMLSchema-instance" xsi:noNamespaceSchemaLocation="http://sumo.dlr.de/xsd/netconvertConfiguration.xsd">

    <input>
        <type-files value="c:\erdm_ja\sumo-dev\data\typemap\osmNetconvert.typ.xml,c:\erdm_ja\sumo-dev\data\typemap\osmNetconvertUrbanDe.typ.xml,c:\erdm_ja\sumo-dev\data\typemap\osmNetconvertPedestrians.typ.xml,c:\erdm_ja\sumo-dev\data\typemap\osmNetconvertBicycle.typ.xml"/>
        <osm-files value="osm_bbox.osm.xml"/>
    </input>

    <output>
        <output-file value="osm.net.xml"/>
        <output.street-names value="true"/>
        <output.original-names value="true"/>
        <ptstop-output value="osm_stops.add.xml"/>
        <ptline-output value="osm_ptlines.xml"/>
    </output>

    <projection>
        <proj.utm value="true"/>
    </projection>

    <processing>
        <geometry.remove value="true"/>
        <roundabouts.guess value="true"/>
    </processing>

    <tls_building>
        <tls.discard-simple value="true"/>
        <tls.join value="true"/>
        <tls.guess-signals value="true"/>
        <tls.default-type value="actuated"/>
    </tls_building>

    <ramp_guessing>
        <ramps.guess value="true"/>
    </ramp_guessing>

    <junctions>
        <junctions.join value="true"/>
        <junctions.corner-detail value="5"/>
    </junctions>

    <pedestrian>
        <crossings.guess value="true"/>
    </pedestrian>

    <railway>
        <railway.topology.repair value="true"/>
        <railway.topology.repair.stop-turn value="true"/>
    </railway>

    <formats>
        <osm.bike-access value="true"/>
    </formats>

    <report>
        <verbose value="true"/>
        <aggregate-warnings value="5"/>
    </report>

</configuration>
-->

<additional xmlns:xsi="http://www.w3.org/2001/XMLSchema-instance" xsi:noNamespaceSchemaLocation="http://sumo.dlr.de/xsd/additional_file.xsd">
    <busStop id="-1094134880" name="Johannes-Sasse-Ring" lane="-141968830#0_1" startPos="50.60" endPos="65.60" friendlyPos="true" lines="160"/>
    <busStop id="-1383533494" name="Büchnerweg" lane="-23913524#3_1" startPos="75.80" endPos="90.80" friendlyPos="true" lines="164 162"/>
    <busStop id="-1383533578" name="Radickestraße/Nipkowstraße" lane="-137534616#0_1" startPos="26.31" endPos="41.31" friendlyPos="true" lines="164 162"/>
    <busStop id="-1553912606" name="Akeleiweg" lane="-141968830#1_1" startPos="29.07" endPos="44.07" friendlyPos="true" lines="160"/>
    <busStop id="-1560223555" name="Am Studio/Köpenicker Straße" lane="-314415495#3_2" startPos="89.28" endPos="104.28" friendlyPos="true" lines="260"/>
    <busStop id="-1560223790" name="Wilhelm-Ostwald-Straße" lane="-314415495#6_2" startPos="0.00" endPos="14.09" friendlyPos="true" lines="260"/>
    <busStop id="-1906421953" name="S Adlershof" lane="-45875465_1" startPos="33.45" endPos="41.28" friendlyPos="true" lines="N64"/>
    <busStop id="-385200818" name="Albert-Einstein-Straße" lane="-314415495#16_2" startPos="0.00" endPos="9.00" friendlyPos="true" lines="260"/>
    <busStop id="-3892451598" name="Marktplatz Adlershof" lane="-178028204#3_1" startPos="16.55" endPos="24.05" friendlyPos="true" lines="61 63"/>
    <busStop id="-851572693" name="Wegedornstraße/Semmelweisstraße" lane="-46150481#0_2" startPos="18.53" endPos="33.53" friendlyPos="true" lines="162 164"/>
    <busStop id="-942861696" name="Altglienicker Brücke" lane="-144909690_1" startPos="75.86" endPos="90.86" friendlyPos="true" lines="163 260"/>
    <busStop id="-94487924" name="Altglienicke Kirche" lane="-144909690_1" startPos="406.43" endPos="421.43" friendlyPos="true" lines="163 260"/>
    <busStop id="-945142208" name="Hans-Schmidt-Straße" lane="-887919960#5_2" startPos="7.40" endPos="22.40" friendlyPos="true" lines="163"/>
    <busStop id="1383533459" name="Anna-Seghers-Straße" lane="24152326#0_1" startPos="60.22" endPos="75.22" friendlyPos="true" lines="164 162"/>
    <busStop id="1383533461" name="Adlergestell/Glienicker Weg" lane="318210360#0_2" startPos="60.54" endPos="75.54" friendlyPos="true" lines="163 N68"/>
    <busStop id="1383533462" name="Adlergestell/Glienicker Weg" lane="204721579#2_1" startPos="90.00" endPos="105.00" friendlyPos="true" lines="163 N68"/>
    <busStop id="1383533492" name="Büchnerweg" lane="23913524#3_1" startPos="38.06" endPos="53.06" friendlyPos="true" lines="164 162"/>
    <busStop id="1383533575" name="Radickestraße/Anna-Seghers-Straße" lane="149611526#0_1" startPos="23.98" endPos="38.98" friendlyPos="true" lines="164 162"/>
    <busStop id="1383533577" name="Radickestraße/Nipkowstraße" lane="137534616#0_1" startPos="34.88" endPos="49.88" friendlyPos="true" lines="164 162"/>
    <busStop id="1383533597" name="Anna-Seghers-Straße" lane="152839426_1" startPos="0.00" endPos="7.50" friendlyPos="true" lines="N64"/>
    <busStop id="1420514676" name="S Adlershof" lane="152198459#1_0" startPos="35.87" endPos="54.64" friendlyPos="true">
        <access lane="230625606#2_0" pos="45.84" length="14.53" friendlyPos="1"/>
        <access lane="398770009#3_0" pos="45.89" length="4.24" friendlyPos="1"/>
        <access lane="398770009#4_0" pos="0.00" length="9.59" friendlyPos="1"/>
        <access lane="398770009#5_0" pos="0.00" length="13.13" friendlyPos="1"/>
        <access lane="578659350#0_0" pos="0.00" length="19.56" friendlyPos="1"/>
    </busStop>
    <busStop id="1560223236" name="Rudower Chaussee/Wegedornstraße" lane="143308587#1_2" startPos="35.59" endPos="50.59" friendlyPos="true" lines="160 162 N60 164"/>
    <busStop id="1568240825" name="Altglienicke Kirche" lane="81096611#0_1" startPos="34.02" endPos="49.02" friendlyPos="true" lines="160 N60"/>
    <busStop id="1656195133" name="S Adlershof" lane="206889086#1_2" startPos="21.84" endPos="29.35" friendlyPos="true" lines="N64 162 163 N60 164 N68"/>
    <busStop id="1704693343" name="Karl-Ziegler-Straße" lane="385981675#1_0" startPos="44.93" endPos="69.93" friendlyPos="true" lines="61 63">
        <access lane="142575685#0_0" pos="57.39" length="9.48" friendlyPos="1"/>
        <access lane="142575686#3_0" pos="7.23" length="13.10" friendlyPos="1"/>
        <access lane="569694705#0_0" pos="0.20" length="15.97" friendlyPos="1"/>
        <access lane="569694705#2_0" pos="0.00" length="14.54" friendlyPos="1"/>
        <access lane="840221735#5_0" pos="51.89" length="13.26" friendlyPos="1"/>
    </busStop>
    <busStop id="1704693369" name="Karl-Ziegler-Straße" lane="220198810#9_0" startPos="29.80" endPos="42.30" friendlyPos="true" lines="61 63">
        <access lane="142575685#0_0" pos="25.02" length="13.37" friendlyPos="1"/>
        <access lane="142575686#4_0" pos="8.41" length="8.41" friendlyPos="1"/>
        <access lane="142575686#5_0" pos="0.00" length="11.84" friendlyPos="1"/>
        <access lane="397678504#3_0" pos="0.20" length="11.81" friendlyPos="1"/>
        <access lane="840221739#16_0" pos="8.03" length="13.61" friendlyPos="1"/>
    </busStop>
    <busStop id="1704693381" name="Magnusstraße" lane="206889079#15_0" startPos="22.68" endPos="47.68" friendlyPos="true" lines="61 63">
        <access lane="143308542#6_0" pos="4.36" length="19.65" friendlyPos="1"/>
        <access lane="143308546#1_0" pos="52.93" length="20.40" friendlyPos="1"/>
        <access lane="81096589#1_0" pos="1.13" length="11.47" friendlyPos="1"/>
        <access lane="81096589#4_0" pos="0.00" length="12.92" friendlyPos="1"/>
        <access lane="887910341#16_0" pos="53.39" length="23.15" friendlyPos="1"/>
    </busStop>
    <busStop id="1704693389" name="Magnusstraße" lane="158236729#9_0" startPos="10.44" endPos="35.44" friendlyPos="true" lines="61 63">
        <access lane="143308542#6_0" pos="51.14" length="15.58" friendlyPos="1"/>
        <access lane="143308546#1_0" pos="6.55" length="24.46" friendlyPos="1"/>
        <access lane="81096580#1_0" pos="0.18" length="17.68" friendlyPos="1"/>
        <access lane="81096580#4_0" pos="0.00" length="15.40" friendlyPos="1"/>
        <access lane="81096580#7_0" pos="0.00" length="24.25" friendlyPos="1"/>
    </busStop>
    <busStop id="1704693428" name="S Adlershof" lane="158236383#2_0" startPos="0.00" endPos="16.37" friendlyPos="true">
        <access lane="230625606#2_0" pos="7.04" length="9.30" friendlyPos="1"/>
        <access lane="398770009#0_0" pos="0.62" length="15.04" friendlyPos="1"/>
        <access lane="398770009#1_0" pos="0.00" length="14.48" friendlyPos="1"/>
        <access lane="398770009#2_0" pos="0.00" length="16.16" friendlyPos="1"/>
        <access lane="398770009#3_0" pos="7.12" length="9.83" friendlyPos="1"/>
    </busStop>
    <busStop id="1704693444" name="S Adlershof" lane="179699938#6_0" startPos="33.49" endPos="49.70" friendlyPos="true" lines="61 63">
        <access lane="220194458#3_0" pos="4.18" length="8.60" friendlyPos="1"/>
        <access lane="540221744_0" pos="0.43" length="10.75" friendlyPos="1"/>
        <access lane="540221756_0" pos="0.59" length="7.78" friendlyPos="1"/>
        <access lane="82710639#1_0" pos="0.20" length="10.66" friendlyPos="1"/>
        <access lane="82710639#2_0" pos="0.00" length="10.21" friendlyPos="1"/>
    </busStop>
    <busStop id="1704693451" name="Walther-Nernst-Straße" lane="206889079#9_0" startPos="34.09" endPos="54.46" friendlyPos="true" lines="61 63">
        <access lane="142575735#2_0" pos="0.68" length="14.98" friendlyPos="1"/>
        <access lane="143308542#15_0" pos="4.75" length="24.85" friendlyPos="1"/>
        <access lane="670062907#1_0" pos="44.13" length="19.13" friendlyPos="1"/>
        <access lane="670062907#2_0" pos="0.00" length="24.67" friendlyPos="1"/>
        <access lane="887910341#3_0" pos="4.94" length="23.24" friendlyPos="1"/>
    </busStop>
    <busStop id="1704693457" name="Walther-Nernst-Straße" lane="220198808#6_0" startPos="34.34" endPos="54.25" friendlyPos="true" lines="61 63">
        <access lane="143308542#15_0" pos="43.86" length="20.26" friendlyPos="1"/>
        <access lane="81096606#1_0" pos="2.00" length="13.50" friendlyPos="1"/>
        <access lane="81096606#3_0" pos="0.20" length="14.17" friendlyPos="1"/>
        <access lane="81096606#5_0" pos="0.00" length="11.83" friendlyPos="1"/>
        <access lane="81096606#7_0" pos="0.00" length="12.32" friendlyPos="1"/>
    </busStop>
    <busStop id="1862990707" name="Otto-Franke-Straße" lane="153021549#1_1" startPos="31.74" endPos="46.74" friendlyPos="true" lines="163 N68"/>
    <busStop id="2050022025" name="Landschaftspark Johannisthal" lane="70130339#1_2" startPos="76.75" endPos="91.75" friendlyPos="true" lines="163"/>
    <busStop id="2050022029" name="Landschaftspark Johannisthal" lane="231626692#1_2" startPos="168.37" endPos="183.37" friendlyPos="true" lines="163"/>
    <busStop id="2391105467" name="S Adlershof/Franz-Ehrlich-Straße" lane="318210373#0_1" startPos="16.01" endPos="31.01" friendlyPos="true"/>
    <busStop id="301263813" name="Altglienicke Kirche" lane="144909690_1" startPos="25.50" endPos="40.50" friendlyPos="true" lines="163 260"/>
    <busStop id="301292770" name="Wegedornstraße/Semmelweisstraße" lane="169076556#3_1" startPos="6.01" endPos="21.01" friendlyPos="true" lines="160 N60"/>
    <busStop id="301331956" name="Magnusstraße" lane="143308546#1_1" startPos="39.41" endPos="54.41" friendlyPos="true" lines="162 N60 164"/>
    <busStop id="30499115" name="S Adlershof" lane="431786563_0" startPos="1509.12" endPos="1709.12" friendlyPos="true" lines="S45 S8 S9 S46 S85">
        <access lane="540388566_0" pos="0.10" length="39.37" friendlyPos="1"/>
        <access lane="540388567#0_0" pos="0.00" length="34.25" friendlyPos="1"/>
        <access lane="540388567#1_0" pos="0.00" length="37.11" friendlyPos="1"/>
        <access lane="72230304#1_0" pos="81.62" length="41.15" friendlyPos="1"/>
        <access lane="85088365_0" pos="10.28" length="39.96" friendlyPos="1"/>
    </busStop>
    <busStop id="306982602" name="Magnusstraße" lane="143308542#6_1" startPos="14.77" endPos="29.77" friendlyPos="true" lines="162 164 N60"/>
    <busStop id="3508654675" name="S Adlershof" lane="22917994_0" startPos="285.90" endPos="485.90" friendlyPos="true" lines="S45 S8 S9 S46 S85">
        <access lane="206889086#1_0" pos="9.02" length="11.81" friendlyPos="1"/>
        <access lane="218797686#0_0" pos="2.35" length="15.88" friendlyPos="1"/>
        <access lane="540221753_0" pos="0.26" length="15.77" friendlyPos="1"/>
        <access lane="540388579#1_0" pos="11.31" length="10.19" friendlyPos="1"/>
        <access lane="806903753_0" pos="3.92" length="16.36" friendlyPos="1"/>
    </busStop>
    <busStop id="3812676495" name="Otto-Franke-Straße" lane="977639651#1_2" startPos="32.43" endPos="47.43" friendlyPos="true" lines="163 N68"/>
    <busStop id="385200819" name="Albert-Einstein-Straße" lane="314415495#15_2" startPos="3.95" endPos="18.95" friendlyPos="true" lines="260"/>
    <busStop id="3892451598" name="Marktplatz Adlershof" lane="179699939#6_0" startPos="0.00" endPos="7.50" friendlyPos="true" lines="N64">
        <access lane="-178028204#1_0" pos="0.00" length="8.63" friendlyPos="1"/>
        <access lane="-178028204#2_0" pos="0.00" length="7.15" friendlyPos="1"/>
        <access lane="-178028204#3_0" pos="14.91" length="7.40" friendlyPos="1"/>
        <access lane="178028204#2_0" pos="0.20" length="7.15" friendlyPos="1"/>
        <access lane="178028204#3_0" pos="0.00" length="7.40" friendlyPos="1"/>
    </busStop>
    <busStop id="3893875078" name="Otto-Franke-Straße" lane="204721578#0_2" startPos="44.07" endPos="59.07" friendlyPos="true"/>
    <busStop id="464396487" name="Rudower Chaussee/Wegedornstraße" lane="143308542#1_1" startPos="30.43" endPos="45.43" friendlyPos="true" lines="162 164 N60"/>
    <busStop id="464396566" name="Walther-Nernst-Straße" lane="670062907#1_1" startPos="23.13" endPos="38.13" friendlyPos="true" lines="162 N60 164"/>
    <busStop id="464396589" name="Walther-Nernst-Straße" lane="143308542#15_1" startPos="26.28" endPos="41.28" friendlyPos="true" lines="162 164 N60"/>
    <busStop id="5315085711" name="S Adlershof" lane="806903753_1" startPos="0.00" endPos="4.19" friendlyPos="true" lines="162 163 164"/>
    <busStop id="583899039" name="S Adlershof" lane="218797686#0_1" startPos="0.00" endPos="12.50" friendlyPos="true" lines="61 63"/>
    <busStop id="664208807" name="Wilhelm-Ostwald-Straße" lane="314415495#6_2" startPos="42.35" endPos="57.35" friendlyPos="true" lines="260"/>
    <busStop id="664609166" name="Hafenstraße" lane="145586617#6_1" startPos="220.38" endPos="235.38" friendlyPos="true" lines="172"/>
    <busStop id="664609167" name="Hafenstraße" lane="145586617#6_1" startPos="208.65" endPos="223.65" friendlyPos="true" lines="172"/>
    <busStop id="664609173" name="August-Froehlich-Straße" lane="145586617#0_1" startPos="41.44" endPos="56.44" friendlyPos="true" lines="172"/>
    <busStop id="664609175" name="August-Froehlich-Straße" lane="145586617#0_1" startPos="69.76" endPos="84.76" friendlyPos="true" lines="172"/>
    <busStop id="664609197" name="Massantebrücke" lane="145586617#6_1" startPos="1052.80" endPos="1067.80" friendlyPos="true" lines="172"/>
    <busStop id="664609198" name="Massantebrücke" lane="145586617#6_1" startPos="1052.80" endPos="1067.80" friendlyPos="true" lines="172"/>
    <busStop id="664609199" name="Kanalstraße 38-41" lane="145586617#6_1" startPos="976.99" endPos="991.99" friendlyPos="true" lines="172"/>
    <busStop id="664609200" name="Kanalstraße 38-41" lane="145586617#6_1" startPos="899.03" endPos="914.03" friendlyPos="true" lines="172"/>
    <busStop id="664609202" name="Mistelweg" lane="145586617#6_1" startPos="493.37" endPos="508.37" friendlyPos="true" lines="172"/>
    <busStop id="664609203" name="Mistelweg" lane="145586617#6_1" startPos="523.36" endPos="538.36" friendlyPos="true" lines="172"/>
    <busStop id="671564316" name="Rudower Chaussee/Wegedornstraße" lane="143308532#1_1" startPos="27.28" endPos="42.28" friendlyPos="true" lines="160"/>
    <busStop id="766875150" name="Marktplatz Adlershof" lane="178028204#1_1" startPos="61.44" endPos="73.94" friendlyPos="true"/>
    <busStop id="8058787291" name="S Adlershof" lane="52036180#3_2" startPos="7.46" endPos="22.46" friendlyPos="true" lines="N64 N68 N60"/>
    <busStop id="8176926617" name="S Adlershof" lane="52036180#3_2" startPos="7.46" endPos="22.46" friendlyPos="true" lines="N64"/>
    <busStop id="837696418" name="James-Franck-Straße" lane="143308532#7_1" startPos="26.93" endPos="41.93" friendlyPos="true" lines="160"/>
    <busStop id="837696524" name="James-Franck-Straße" lane="46039050#4_1" startPos="27.34" endPos="42.34" friendlyPos="true" lines="160"/>
    <busStop id="837696912" name="Akeleiweg" lane="141968853#1_1" startPos="9.35" endPos="24.35" friendlyPos="true" lines="160"/>
    <busStop id="837697182" name="Johannes-Sasse-Ring" lane="141968799_1" startPos="352.37" endPos="367.37" friendlyPos="true" lines="160"/>
    <busStop id="851572829" name="Korkedamm" lane="81096611#0_1" startPos="534.07" endPos="549.07" friendlyPos="true" lines="160 N60"/>
    <busStop id="852932398" name="Wegedornstraße/Semmelweisstraße" lane="46150481#0_2" startPos="34.01" endPos="49.01" friendlyPos="true" lines="160 162 N60 164"/>
    <busStop id="94487938" name="Altglienicker Brücke" lane="144909690_1" startPos="424.58" endPos="439.23" friendlyPos="true" lines="163 260"/>
    <busStop id="945142098" name="Hans-Schmidt-Straße" lane="318210378#0_2" startPos="5.37" endPos="20.37" friendlyPos="true" lines="163"/>
    <busStop id="945142241" name="Am Studio/Köpenicker Straße" lane="314415495#1_2" startPos="28.80" endPos="43.80" friendlyPos="true" lines="260"/>
</additional>
