<?xml version="1.0" encoding="UTF-8"?>
<!-- generated on 2021-09-07 15:10:30.523337 by $Id: ptlines2flows.py v1_3_1+0313-ccb31df3eb jakob.erdmann@dlr.de 2019-09-02 13:26:32 +0200 $ v1_10_0+0551-f581c04ba63
  options: -n osm.net.xml -e 1800 -p 600 <doubleminus>random-begin <doubleminus>seed 42 <doubleminus>ptstops osm_stops.add.xml <doubleminus>ptlines osm_ptlines.xml -o osm_pt.rou.xml <doubleminus>ignore-errors <doubleminus>vtype-prefix pt_ <doubleminus>stopinfos-file stopinfos.xml <doubleminus>routes-file vehroutes.xml <doubleminus>trips-file trips.trips.xml <doubleminus>min-stops 0 <doubleminus>extend-to-fringe <doubleminus>verbose
-->
<routes xmlns:xsi="http://www.w3.org/2001/XMLSchema-instance" xsi:noNamespaceSchemaLocation="http://sumo.dlr.de/xsd/routes_file.xsd">
    <vType id="pt_bus" vClass="bus"/>
    <vType id="pt_tram" vClass="tram"/>
    <vType id="pt_train" vClass="rail"/>
    <vType id="pt_subway" vClass="rail_urban"/>
    <vType id="pt_light_rail" vClass="rail_urban"/>
    <vType id="pt_monorail" vClass="rail"/>
    <vType id="pt_trolleybus" vClass="bus"/>
    <vType id="pt_aerialway" vClass="bus"/>
    <vType id="pt_ferry" vClass="ship"/>
    <route id="pt_bus_172:1" edges="145586617#0 145586617#1 145586617#2 145586617#3 145586617#4 145586617#5 145586617#6" >
        <stop busStop="664609175" duration="30.00" until="46.0"/> <!-- August-Froehlich-Straße -->
        <stop busStop="664609167" duration="30.00" until="125.0"/> <!-- Hafenstraße -->
        <stop busStop="664609202" duration="30.00" until="184.0"/> <!-- Mistelweg -->
        <stop busStop="664609200" duration="30.00" until="254.0"/> <!-- Kanalstraße 38-41 -->
        <stop busStop="664609198" duration="30.00" until="305.0"/> <!-- Massantebrücke -->
    </route>
    <route id="pt_bus_160:0" edges="141968799 141968830#1 141968830#2 141968810#0 141968810#1 141968844#2 141968844#3 141968844#4 141968823#0 141968823#1 141968853#0 141968853#1 141968853#2 46150483#0 46150483#1 206579057 206579058#1 46039050#1 46039050#4 46039050#7 143308587#1 24214694#3 24214694#4 24214694#5 190083618#0 -283317455#1 -143308570 -318210395 -190083616 46150481#0 46150481#1" >
        <stop busStop="837697182" duration="30.00" until="66.0"/> <!-- Johannes-Sasse-Ring -->
        <stop busStop="837696912" duration="30.00" until="155.0"/> <!-- Akeleiweg -->
        <stop busStop="837696524" duration="30.00" until="278.0"/> <!-- James-Franck-Straße -->
        <stop busStop="1560223236" duration="30.00" until="378.0"/> <!-- Rudower Chaussee/Wegedornstraße -->
        <stop busStop="852932398" duration="30.00" until="491.0"/> <!-- Wegedornstraße/Semmelweisstraße -->
    </route>
    <route id="pt_bus_162:1" edges="-46150481#1 -46150481#0 190083616 318210395 143308570 283317455#0 -190083618#1 -24214694#5 -24214694#4 -24214694#3 143308590#0 143308542#1 143308542#3 143308542#4 143308542#6 143308542#8 143308542#12 143308542#13 143308542#14 143308542#15 143308552#1 143308549#1 143308549#2 143308549#3 158236381 220194458#3 806903753" >
        <stop busStop="-851572693" duration="30.00" until="45.0"/> <!-- Wegedornstraße/Semmelweisstraße -->
        <stop busStop="464396487" duration="30.00" until="182.0"/> <!-- Rudower Chaussee/Wegedornstraße -->
        <stop busStop="306982602" duration="30.00" until="254.0"/> <!-- Magnusstraße -->
        <stop busStop="464396589" duration="30.00" until="323.0"/> <!-- Walther-Nernst-Straße -->
        <stop busStop="5315085711" duration="30.00" until="475.0"/> <!-- S Adlershof -->
    </route>
    <route id="pt_tram_61:0" edges="385981675#1 158236729#1 158236729#2 158236729#3 158236729#4 158236729#5 158236729#6 158236729#8 158236729#9 220198808#1 220198808#4 220198808#5 220198808#6 220198808#9 220198808#12 158236381 220194458#3 806903753" >
        <stop busStop="1704693343" duration="30.00" until="42.0"/> <!-- Karl-Ziegler-Straße -->
        <stop busStop="1704693389" duration="30.00" until="132.0"/> <!-- Magnusstraße -->
        <stop busStop="1704693457" duration="30.00" until="200.0"/> <!-- Walther-Nernst-Straße -->
    </route>
    <route id="pt_bus_162:0" edges="206889086#1 541676219 318210389#0 670062912#1 81639675#1 81639675#2 81639675#3 81639675#4 670062909#1 670062908#1 670062907#1 670062907#2 670062907#4 677933664#4 143308546#0 143308546#1 143308546#3 143308546#7 143308546#8 670062902#2 143308587#1 24214694#3 24214694#4 24214694#5 190083618#0 -283317455#1 -143308570 -318210395 -190083616 46150481#0 46150481#1" >
        <stop busStop="1656195133" duration="30.00" until="38.0"/> <!-- S Adlershof -->
        <stop busStop="464396566" duration="30.00" until="146.0"/> <!-- Walther-Nernst-Straße -->
        <stop busStop="301331956" duration="30.00" until="261.0"/> <!-- Magnusstraße -->
        <stop busStop="1560223236" duration="30.00" until="406.0"/> <!-- Rudower Chaussee/Wegedornstraße -->
        <stop busStop="852932398" duration="30.00" until="482.0"/> <!-- Wegedornstraße/Semmelweisstraße -->
    </route>
    <route id="pt_train_S45:0" edges="22917994" >
        <stop busStop="3508654675" duration="30.00" until="88.0"/> <!-- S Adlershof -->
    </route>
    <route id="pt_bus_163:0" edges="144909690 375685718#0 375685718#1 382647882 12749623 81639678#0 81639678#1 48858191#1 318210383#0 52243916#1 -43660343#1 -43660343#0 10735918#0 204721579#2 204721579#4 204721579#6 153021549#0 153021549#1 153021549#2 153021549#3 153021549#4 153021549#5 40191606#0 40191606#2 40191606#3 414563781 206889086#1" >
        <stop busStop="301263813" duration="30.00" until="40.0"/> <!-- Altglienicke Kirche -->
        <stop busStop="94487938" duration="30.00" until="127.0"/> <!-- Altglienicker Brücke -->
        <stop busStop="1383533462" duration="30.00" until="329.0"/> <!-- Adlergestell/Glienicker Weg -->
        <stop busStop="1862990707" duration="30.00" until="392.0"/> <!-- Otto-Franke-Straße -->
        <stop busStop="1656195133" duration="30.00" until="475.0"/> <!-- S Adlershof -->
    </route>
    <route id="pt_train_S45:1" edges="431786563 846012128" >
        <stop busStop="30499115" duration="30.00" until="153.0"/> <!-- S Adlershof -->
    </route>
    <route id="pt_tram_63:0" edges="385981675#1 158236729#1 158236729#2 158236729#3 158236729#4 158236729#5 158236729#6 158236729#8 158236729#9 220198808#1 220198808#4 220198808#5 220198808#6 220198808#9 220198808#12 158236381 220194458#3 806903753" >
        <stop busStop="1704693343" duration="30.00" until="55.0"/> <!-- Karl-Ziegler-Straße -->
        <stop busStop="1704693389" duration="30.00" until="162.0"/> <!-- Magnusstraße -->
        <stop busStop="1704693457" duration="30.00" until="275.0"/> <!-- Walther-Nernst-Straße -->
    </route>
    <route id="pt_train_S8:1" edges="22917994" >
        <stop busStop="3508654675" duration="30.00" until="88.0"/> <!-- S Adlershof -->
    </route>
    <route id="pt_train_S8:0" edges="431786563 846012128" >
        <stop busStop="30499115" duration="30.00" until="179.0"/> <!-- S Adlershof -->
    </route>
    <route id="pt_bus_260:0" edges="206889086#1 541676219 318210389#0 670062912#1 81639675#1 81639675#2 81639675#3 81639675#4 -318210361#2 -318210361#0 -314415495#25 -314415495#22 -314415495#21 -314415495#19 -314415495#17 -314415495#16 -314415495#15 -314415495#14 -314415495#13 -314415495#12 -314415495#11 -314415495#10 -314415495#9 -314415495#8 -314415495#7 -314415495#6 -314415495#5 -314415495#4 -314415495#3 -314415495#1 -314415495#0 -81639685#2 48858192#1 318210388#0 -318210386#1 -81639678#0 -12749623 -318210387 -375685718#1 -375685718#0 -144909690" >
        <stop busStop="1656195133" duration="30.00" until="39.0"/> <!-- S Adlershof -->
        <stop busStop="-385200818" duration="30.00" until="169.0"/> <!-- Albert-Einstein-Straße -->
        <stop busStop="-1560223790" duration="30.00" until="239.0"/> <!-- Wilhelm-Ostwald-Straße -->
        <stop busStop="-1560223555" duration="30.00" until="293.0"/> <!-- Am Studio/Köpenicker Straße -->
        <stop busStop="-942861696" duration="30.00" until="435.0"/> <!-- Altglienicker Brücke -->
        <stop busStop="-94487924" duration="30.00" until="513.0"/> <!-- Altglienicke Kirche -->
    </route>
    <route id="pt_tram_61:1" edges="179699939#0 179699939#1 179699939#2 179699939#3 179699939#4 179699939#5 179699939#6 179699939#7 179699939#12 179699939#13 179699939#14 179699939#15 179699936 179699938#6 179699938#7 179699938#8 206889079#3 206889079#6 206889079#9 206889079#10 206889079#11 206889079#14 206889079#15 220198810#1 220198810#3 220198810#4 220198810#5 220198810#6 220198810#7 220198810#8 220198810#9" >
        <stop busStop="1704693444" duration="30.00" until="141.0"/> <!-- S Adlershof -->
        <stop busStop="1704693451" duration="30.00" until="269.0"/> <!-- Walther-Nernst-Straße -->
        <stop busStop="1704693381" duration="30.00" until="349.0"/> <!-- Magnusstraße -->
        <stop busStop="1704693369" duration="30.00" until="459.0"/> <!-- Karl-Ziegler-Straße -->
    </route>
    <route id="pt_bus_163:1" edges="806903753 218797686#0 72230304#1 461514282#0 461514282#1 204721578#0 977639651#1 153021553 318210353 207086005 977639652 318210360#0 152839434#1 43660343#0 43660343#1 48298278#0 48858192#1 318210388#0 -318210386#1 -81639678#0 -12749623 -318210387 -375685718#1 -375685718#0 -144909690" >
        <stop busStop="5315085711" duration="30.00" until="31.0"/> <!-- S Adlershof -->
        <stop busStop="3812676495" duration="30.00" until="188.0"/> <!-- Otto-Franke-Straße -->
        <stop busStop="1383533461" duration="30.00" until="249.0"/> <!-- Adlergestell/Glienicker Weg -->
        <stop busStop="-942861696" duration="30.00" until="487.0"/> <!-- Altglienicker Brücke -->
        <stop busStop="-94487924" duration="30.00" until="565.0"/> <!-- Altglienicke Kirche -->
    </route>
    <route id="pt_train_S9:0" edges="22917994" >
        <stop busStop="3508654675" duration="30.00" until="122.0"/> <!-- S Adlershof -->
    </route>
    <route id="pt_train_S9:1" edges="431786563 846012128" >
        <stop busStop="30499115" duration="30.00" until="190.0"/> <!-- S Adlershof -->
    </route>
    <route id="pt_tram_63:1" edges="179699939#0 179699939#1 179699939#2 179699939#3 179699939#4 179699939#5 179699939#6 179699939#7 179699939#12 179699939#13 179699939#14 179699939#15 179699936 179699938#6 179699938#7 179699938#8 206889079#3 206889079#6 206889079#9 206889079#10 206889079#11 206889079#14 206889079#15 220198810#1 220198810#3 220198810#4 220198810#5 220198810#6 220198810#7 220198810#8 220198810#9" >
        <stop busStop="1704693444" duration="30.00" until="131.0"/> <!-- S Adlershof -->
        <stop busStop="1704693451" duration="30.00" until="272.0"/> <!-- Walther-Nernst-Straße -->
        <stop busStop="1704693381" duration="30.00" until="352.0"/> <!-- Magnusstraße -->
        <stop busStop="1704693369" duration="30.00" until="466.0"/> <!-- Karl-Ziegler-Straße -->
    </route>
    <route id="pt_train_S46:0" edges="22917994" >
        <stop busStop="3508654675" duration="30.00" until="156.0"/> <!-- S Adlershof -->
    </route>
    <route id="pt_train_S46:1" edges="431786563 846012128" >
        <stop busStop="30499115" duration="30.00" until="224.0"/> <!-- S Adlershof -->
    </route>
    <route id="pt_bus_260:1" edges="144909690 375685718#0 375685718#1 382647882 12749623 81639678#0 81639678#1 48858191#1 318210383#0 81639685#1 314415495#0 314415495#1 314415495#3 314415495#4 314415495#5 314415495#6 314415495#7 314415495#8 314415495#9 314415495#10 314415495#11 314415495#12 314415495#13 314415495#14 314415495#15 314415495#16 314415495#17 314415495#19 314415495#21 314415495#22 314415495#25 318210361#0 318210361#1 143308549#1 143308549#2 143308549#3 158236381 220194458#3 806903753" >
        <stop busStop="301263813" duration="30.00" until="40.0"/> <!-- Altglienicke Kirche -->
        <stop busStop="94487938" duration="30.00" until="124.0"/> <!-- Altglienicker Brücke -->
        <stop busStop="945142241" duration="30.00" until="220.0"/> <!-- Am Studio/Köpenicker Straße -->
        <stop busStop="664208807" duration="30.00" until="277.0"/> <!-- Wilhelm-Ostwald-Straße -->
        <stop busStop="385200819" duration="30.00" until="343.0"/> <!-- Albert-Einstein-Straße -->
        <stop busStop="5315085711" duration="30.00" until="461.0"/> <!-- S Adlershof -->
    </route>
    <route id="pt_train_S85:0" edges="22917994" >
        <stop busStop="3508654675" duration="30.00" until="176.0"/> <!-- S Adlershof -->
    </route>
    <route id="pt_train_S85:1" edges="431786563 846012128" >
        <stop busStop="30499115" duration="30.00" until="258.0"/> <!-- S Adlershof -->
    </route>
    <route id="pt_bus_163:2" edges="70130339#0 70130339#1 70130339#2 70130339#3 70130339#4 118262353#2 -38915290#2 -38915290#1 -318210378#1 -318210378#0 -887919960#5 -887919960#4 -887919960#0 -318210377#0 -31050360#2 143308552#1 143308549#1 143308549#2 143308549#3 158236381 220194458#3 806903753 218797686#0 72230304#1 461514282#0 461514282#1 204721578#0 977639651#1 153021553 318210353 207086005 977639652 318210360#0 152839434#1 43660343#0 43660343#1 48298278#0 48858192#1 318210388#0 -318210386#1 -81639678#0 -12749623 -318210387 -375685718#1 -375685718#0 -144909690" >
        <stop busStop="2050022025" duration="30.00" until="49.0"/> <!-- Landschaftspark Johannisthal -->
        <stop busStop="-945142208" duration="30.00" until="128.0"/> <!-- Hans-Schmidt-Straße -->
        <stop busStop="5315085711" duration="30.00" until="278.0"/> <!-- S Adlershof -->
        <stop busStop="3812676495" duration="30.00" until="396.0"/> <!-- Otto-Franke-Straße -->
        <stop busStop="1383533461" duration="30.00" until="458.0"/> <!-- Adlergestell/Glienicker Weg -->
        <stop busStop="-942861696" duration="30.00" until="680.0"/> <!-- Altglienicker Brücke -->
        <stop busStop="-94487924" duration="30.00" until="756.0"/> <!-- Altglienicke Kirche -->
    </route>
    <route id="pt_bus_164:0" edges="-23913524#4 -23913524#3 -23913524#2 -23913524#1 -23913524#0 137534616#0 137534616#1 137534616#2 137534616#3 137534616#4 166142951#0 166142951#1 149611526#0 149611526#1 40191606#0 40191606#2 40191606#3 414563781 206889086#1 541676219 318210389#0 670062912#1 81639675#1 81639675#2 81639675#3 81639675#4 670062909#1 670062908#1 670062907#1 670062907#2 670062907#4 677933664#4 143308546#0 143308546#1 143308546#3 143308546#7 143308546#8 670062902#2 143308587#1 24214694#3 24214694#4 24214694#5 190083618#0 -283317455#1 -143308570 -318210395 -190083616 46150481#0 46150481#1" >
        <stop busStop="-1383533494" duration="30.00" until="54.0"/> <!-- Büchnerweg -->
        <stop busStop="1383533577" duration="30.00" until="117.0"/> <!-- Radickestraße/Nipkowstraße -->
        <stop busStop="1383533575" duration="30.00" until="186.0"/> <!-- Radickestraße/Anna-Seghers-Straße -->
        <stop busStop="1656195133" duration="30.00" until="270.0"/> <!-- S Adlershof -->
        <stop busStop="464396566" duration="30.00" until="451.0"/> <!-- Walther-Nernst-Straße -->
        <stop busStop="301331956" duration="30.00" until="519.0"/> <!-- Magnusstraße -->
        <stop busStop="1560223236" duration="30.00" until="658.0"/> <!-- Rudower Chaussee/Wegedornstraße -->
        <stop busStop="852932398" duration="30.00" until="754.0"/> <!-- Wegedornstraße/Semmelweisstraße -->
    </route>
    <route id="pt_bus_164:1" edges="-46150481#1 -46150481#0 190083616 318210395 143308570 283317455#0 -190083618#1 -24214694#5 -24214694#4 -24214694#3 143308590#0 143308542#1 143308542#3 143308542#4 143308542#6 143308542#8 143308542#12 143308542#13 143308542#14 143308542#15 143308552#1 143308549#1 143308549#2 143308549#3 158236381 220194458#3 806903753 218797686#0 -679901152#1 -45875465 152839428 24152326#0 24152326#1 23925124#0 23925124#1 23925124#2 -166142951#1 -166142951#0 -137534616#4 -137534616#3 -137534616#2 -137534616#1 -137534616#0 23913524#0 23913524#1 23913524#2 23913524#3 23913524#4" >
        <stop busStop="-851572693" duration="30.00" until="46.0"/> <!-- Wegedornstraße/Semmelweisstraße -->
        <stop busStop="464396487" duration="30.00" until="163.0"/> <!-- Rudower Chaussee/Wegedornstraße -->
        <stop busStop="306982602" duration="30.00" until="227.0"/> <!-- Magnusstraße -->
        <stop busStop="464396589" duration="30.00" until="309.0"/> <!-- Walther-Nernst-Straße -->
        <stop busStop="5315085711" duration="30.00" until="463.0"/> <!-- S Adlershof -->
        <stop busStop="1383533459" duration="30.00" until="563.0"/> <!-- Anna-Seghers-Straße -->
        <stop busStop="-1383533578" duration="30.00" until="652.0"/> <!-- Radickestraße/Nipkowstraße -->
        <stop busStop="1383533492" duration="30.00" until="714.0"/> <!-- Büchnerweg -->
    </route>
    <route id="pt_bus_160:1" edges="81096611#0 81096611#1 81096611#2 169076556#0 169076556#1 169076556#2 169076556#3 190083616 318210395 143308570 283317455#0 -190083618#1 -24214694#5 -24214694#4 -24214694#3 143308590#0 143308532#1 143308532#4 143308532#7 46039051#1 -141968853#2 -141968853#1 -141968853#0 141968814#0 141968814#1 141968844#6 141968844#7 141968844#8 141968807#0 141968807#1 -141968830#2 -141968830#1 -141968830#0" >
        <stop busStop="1568240825" duration="30.00" until="42.0"/> <!-- Altglienicke Kirche -->
        <stop busStop="851572829" duration="30.00" until="140.0"/> <!-- Korkedamm -->
        <stop busStop="301292770" duration="30.00" until="218.0"/> <!-- Wegedornstraße/Semmelweisstraße -->
        <stop busStop="671564316" duration="30.00" until="359.0"/> <!-- Rudower Chaussee/Wegedornstraße -->
        <stop busStop="837696418" duration="30.00" until="419.0"/> <!-- James-Franck-Straße -->
        <stop busStop="-1553912606" duration="30.00" until="555.0"/> <!-- Akeleiweg -->
        <stop busStop="-1094134880" duration="30.00" until="600.0"/> <!-- Johannes-Sasse-Ring -->
    </route>
    <route id="pt_bus_163:3" edges="144909690 375685718#0 375685718#1 382647882 12749623 81639678#0 81639678#1 48858191#1 318210383#0 52243916#1 -43660343#1 -43660343#0 10735918#0 204721579#2 204721579#4 204721579#6 153021549#0 153021549#1 153021549#2 153021549#3 153021549#4 153021549#5 40191606#0 40191606#2 40191606#3 414563781 206889086#1 541676219 318210389#0 670062912#1 81639675#1 81639675#2 81639675#3 81639675#4 670062909#1 670062908#1 31050360#1 318210377#0 318210377#1 887919960#4 887919960#5 318210378#0 318210378#1 38915290#1 38915290#2 8025704#0 231626692#0 231626692#1" >
        <stop busStop="301263813" duration="30.00" until="41.0"/> <!-- Altglienicke Kirche -->
        <stop busStop="94487938" duration="30.00" until="128.0"/> <!-- Altglienicker Brücke -->
        <stop busStop="1383533462" duration="30.00" until="283.0"/> <!-- Adlergestell/Glienicker Weg -->
        <stop busStop="1862990707" duration="30.00" until="358.0"/> <!-- Otto-Franke-Straße -->
        <stop busStop="1656195133" duration="30.00" until="476.0"/> <!-- S Adlershof -->
        <stop busStop="945142098" duration="30.00" until="613.0"/> <!-- Hans-Schmidt-Straße -->
        <stop busStop="2050022029" duration="30.00" until="690.0"/> <!-- Landschaftspark Johannisthal -->
    </route>
    <route id="pt_bus_162:3" edges="-46150481#1 -46150481#0 190083616 318210395 143308570 283317455#0 -190083618#1 -24214694#5 -24214694#4 -24214694#3 143308590#0 143308542#1 143308542#3 143308542#4 143308542#6 143308542#8 143308542#12 143308542#13 143308542#14 143308542#15 143308552#1 143308549#1 143308549#2 143308549#3 158236381 220194458#3 806903753 218797686#0 -679901152#1 -45875465 152839428 24152326#0 24152326#1 23925124#0 23925124#1 23925124#2 -166142951#1 -166142951#0 -137534616#4 -137534616#3 -137534616#2 -137534616#1 -137534616#0 23913524#0 23913524#1 23913524#2 23913524#3 23913524#4" >
        <stop busStop="-851572693" duration="30.00" until="45.0"/> <!-- Wegedornstraße/Semmelweisstraße -->
        <stop busStop="464396487" duration="30.00" until="177.0"/> <!-- Rudower Chaussee/Wegedornstraße -->
        <stop busStop="306982602" duration="30.00" until="233.0"/> <!-- Magnusstraße -->
        <stop busStop="464396589" duration="30.00" until="323.0"/> <!-- Walther-Nernst-Straße -->
        <stop busStop="5315085711" duration="30.00" until="433.0"/> <!-- S Adlershof -->
        <stop busStop="1383533459" duration="30.00" until="494.0"/> <!-- Anna-Seghers-Straße -->
        <stop busStop="-1383533578" duration="30.00" until="582.0"/> <!-- Radickestraße/Nipkowstraße -->
        <stop busStop="1383533492" duration="30.00" until="644.0"/> <!-- Büchnerweg -->
    </route>
    <route id="pt_bus_172:0" edges="145586617#0 145586617#1 145586617#2 145586617#3 145586617#4 145586617#5 145586617#6 -145586617#9 -145586617#5 -145586617#4 -145586617#3 145586617#3 145586617#4 145586617#5 145586617#6 -145586617#9 -145586617#5 -145586617#4 -145586617#3 145586617#3 145586617#4 145586617#5 145586617#6 -145586617#9 -145586617#5 -145586617#4 -145586617#3 145586617#3 145586617#4 145586617#5 145586617#6 -145586617#9 -145586617#5 -145586617#4 -145586617#3 -145586617#2 -145586617#1 -145586617#0 -212452093#3 -212452093#2 -212452093#1 -212452093#0 212452093#0 212452093#1 212452093#2 212452093#3 145586617#0 145586617#1 145586617#2 145586617#3 145586617#4 145586617#5 145586617#6" >
        <stop busStop="664609197" duration="30.00" until="148.0"/> <!-- Massantebrücke -->
        <stop busStop="664609199" duration="30.00" until="397.0"/> <!-- Kanalstraße 38-41 -->
        <stop busStop="664609203" duration="30.00" until="617.0"/> <!-- Mistelweg -->
        <stop busStop="664609166" duration="30.00" until="848.0"/> <!-- Hafenstraße -->
        <stop busStop="664609173" duration="30.00" until="1144.0"/> <!-- August-Froehlich-Straße -->
    </route>
    <route id="pt_bus_162:2" edges="-23913524#4 -23913524#3 -23913524#2 -23913524#1 -23913524#0 137534616#0 137534616#1 137534616#2 137534616#3 137534616#4 166142951#0 166142951#1 149611526#0 149611526#1 40191606#0 40191606#2 40191606#3 414563781 206889086#1 541676219 318210389#0 670062912#1 81639675#1 81639675#2 81639675#3 81639675#4 670062909#1 670062908#1 670062907#1 670062907#2 670062907#4 677933664#4 143308546#0 143308546#1 143308546#3 143308546#7 143308546#8 670062902#2 143308587#1 24214694#3 24214694#4 24214694#5 190083618#0 -283317455#1 -143308570 -318210395 -190083616 46150481#0 46150481#1" >
        <stop busStop="-1383533494" duration="30.00" until="54.0"/> <!-- Büchnerweg -->
        <stop busStop="1383533577" duration="30.00" until="118.0"/> <!-- Radickestraße/Nipkowstraße -->
        <stop busStop="1383533575" duration="30.00" until="187.0"/> <!-- Radickestraße/Anna-Seghers-Straße -->
        <stop busStop="1656195133" duration="30.00" until="326.0"/> <!-- S Adlershof -->
        <stop busStop="464396566" duration="30.00" until="453.0"/> <!-- Walther-Nernst-Straße -->
        <stop busStop="301331956" duration="30.00" until="521.0"/> <!-- Magnusstraße -->
        <stop busStop="1560223236" duration="30.00" until="614.0"/> <!-- Rudower Chaussee/Wegedornstraße -->
        <stop busStop="852932398" duration="30.00" until="722.0"/> <!-- Wegedornstraße/Semmelweisstraße -->
    </route>
    <flow id="pt_bus_172:1" type="pt_bus" route="pt_bus_172:1" begin="52.0" end="1852.0" period="600" line="172:1" >
        <param key="name" value="Bus 172: U Rudow =&gt; S Lichtenrade/Blohmstraße"/>
        <param key="completeness" value="0.11"/>
    </flow>
    <flow id="pt_bus_160:0" type="pt_bus" route="pt_bus_160:0" begin="3.0" end="1803.0" period="600" line="160:0" >
        <param key="name" value="Bus 160: S Schöneweide =&gt; Altglienicke, Siriusstraße"/>
        <param key="completeness" value="0.16"/>
    </flow>
    <flow id="pt_bus_162:1" type="pt_bus" route="pt_bus_162:1" begin="58.0" end="1858.0" period="600" line="162:1" >
        <param key="name" value="Bus 162: U Rudow =&gt; S Adlershof"/>
        <param key="completeness" value="0.45"/>
    </flow>
    <flow id="pt_tram_61:0" type="pt_tram" route="pt_tram_61:0" begin="201.0" end="2001.0" period="1200" line="61:0" >
        <param key="name" value="Tram 61: Adlershof, Karl-Ziegler-Straße =&gt; Rahnsdorf/Waldschänke"/>
        <param key="completeness" value="0.17"/>
    </flow>
    <flow id="pt_bus_162:0" type="pt_bus" route="pt_bus_162:0" begin="55.0" end="1855.0" period="600" line="162:0" >
        <param key="name" value="Bus 162: S Adlershof =&gt; U Rudow"/>
        <param key="completeness" value="0.45"/>
    </flow>
    <flow id="pt_train_S45:0" type="pt_train" route="pt_train_S45:0" begin="303.0" end="2103.0" period="1200" line="S45:0" >
        <param key="name" value="S45: S Flughafen BER - Terminal 1-2 =&gt; S Südkreuz"/>
        <param key="completeness" value="0.07"/>
    </flow>
    <flow id="pt_bus_163:0" type="pt_bus" route="pt_bus_163:0" begin="93.0" end="1893.0" period="600" line="163:0" >
        <param key="name" value="Bus 163: Flughafen BER - Terminal 5 =&gt; S Adlershof"/>
        <param key="completeness" value="0.26"/>
    </flow>
    <flow id="pt_train_S45:1" type="pt_train" route="pt_train_S45:1" begin="321.0" end="2121.0" period="1200" line="S45:1" >
        <param key="name" value="S45: S Südkreuz =&gt; S Flughafen BER - Terminal 1-2"/>
        <param key="completeness" value="0.07"/>
    </flow>
    <flow id="pt_tram_63:0" type="pt_tram" route="pt_tram_63:0" begin="227.0" end="2027.0" period="1200" line="63:0" >
        <param key="name" value="Tram 63: Adlershof, Karl-Ziegler-Straße =&gt; S Köpenick (=&gt; Mahlsdorf, Rahnsdorfer Straße)"/>
        <param key="completeness" value="0.19"/>
    </flow>
    <flow id="pt_train_S8:1" type="pt_train" route="pt_train_S8:1" begin="383.0" end="2183.0" period="1200" line="S8:1" >
        <param key="name" value="S8: S Zeuthen =&gt; S Birkenwerder"/>
        <param key="completeness" value="0.04"/>
    </flow>
    <flow id="pt_train_S8:0" type="pt_train" route="pt_train_S8:0" begin="362.0" end="2162.0" period="1200" line="S8:0" >
        <param key="name" value="S8: S Birkenwerder =&gt; S Zeuthen"/>
        <param key="completeness" value="0.04"/>
    </flow>
    <flow id="pt_bus_260:0" type="pt_bus" route="pt_bus_260:0" begin="133.0" end="1933.0" period="600" line="260:0" >
        <param key="name" value="Bus 260: S Adlershof =&gt; U Rudow"/>
        <param key="completeness" value="0.27"/>
    </flow>
    <flow id="pt_tram_61:1" type="pt_tram" route="pt_tram_61:1" begin="204.0" end="2004.0" period="1200" line="61:1" >
        <param key="name" value="Tram 61: Rahnsdorf/Waldschänke =&gt; Adlershof, Karl-Ziegler-Straße"/>
        <param key="completeness" value="0.14"/>
    </flow>
    <flow id="pt_bus_163:1" type="pt_bus" route="pt_bus_163:1" begin="119.0" end="1919.0" period="600" line="163:1" >
        <param key="name" value="Bus 163: S Adlershof =&gt; Flughafen BER - Terminal 5"/>
        <param key="completeness" value="0.26"/>
    </flow>
    <flow id="pt_train_S9:0" type="pt_train" route="pt_train_S9:0" begin="416.0" end="2216.0" period="1200" line="S9:0" >
        <param key="name" value="S9: S Flughafen BER - Terminal 1-2 =&gt; S Spandau"/>
        <param key="completeness" value="0.03"/>
    </flow>
    <flow id="pt_train_S9:1" type="pt_train" route="pt_train_S9:1" begin="418.0" end="2218.0" period="1200" line="S9:1" >
        <param key="name" value="S9: S Spandau =&gt; S Flughafen BER - Terminal 1-2"/>
        <param key="completeness" value="0.03"/>
    </flow>
    <flow id="pt_tram_63:1" type="pt_tram" route="pt_tram_63:1" begin="253.0" end="2053.0" period="1200" line="63:1" >
        <param key="name" value="Tram 63: (Mahlsdorf, Rahnsdorfer Straße =&gt;) S Köpenick =&gt; Adlershof, Karl-Ziegler-Straße"/>
        <param key="completeness" value="0.16"/>
    </flow>
    <flow id="pt_train_S46:0" type="pt_train" route="pt_train_S46:0" begin="449.0" end="2249.0" period="1200" line="S46:0" >
        <param key="name" value="S46: S Königs Wusterhausen =&gt; S Westend"/>
        <param key="completeness" value="0.04"/>
    </flow>
    <flow id="pt_train_S46:1" type="pt_train" route="pt_train_S46:1" begin="451.0" end="2251.0" period="1200" line="S46:1" >
        <param key="name" value="S46: S Westend =&gt; S Königs Wusterhausen"/>
        <param key="completeness" value="0.04"/>
    </flow>
    <flow id="pt_bus_260:1" type="pt_bus" route="pt_bus_260:1" begin="353.0" end="2153.0" period="600" line="260:1" >
        <param key="name" value="Bus 260: U Rudow =&gt; S Adlershof"/>
        <param key="completeness" value="0.27"/>
    </flow>
    <flow id="pt_train_S85:0" type="pt_train" route="pt_train_S85:0" begin="496.0" end="2296.0" period="1200" line="S85:0" >
        <param key="name" value="S85: S Grünau =&gt; S Pankow"/>
        <param key="completeness" value="0.06"/>
    </flow>
    <flow id="pt_train_S85:1" type="pt_train" route="pt_train_S85:1" begin="484.0" end="2284.0" period="1200" line="S85:1" >
        <param key="name" value="S85: S Pankow =&gt; S Grünau"/>
        <param key="completeness" value="0.06"/>
    </flow>
    <flow id="pt_bus_163:2" type="pt_bus" route="pt_bus_163:2" begin="131.0" end="1931.0" period="600" line="163:2" >
        <param key="name" value="Bus 163: S Schöneweide =&gt; Flughafen BER - Terminal 5"/>
        <param key="completeness" value="0.27"/>
    </flow>
    <flow id="pt_bus_164:0" type="pt_bus" route="pt_bus_164:0" begin="165.0" end="1965.0" period="600" line="164:0" >
        <param key="name" value="Buslinie 164: S Köpenick =&gt; Flughafen BER - Terminal 5"/>
        <param key="completeness" value="0.31"/>
    </flow>
    <flow id="pt_bus_164:1" type="pt_bus" route="pt_bus_164:1" begin="389.0" end="2189.0" period="600" line="164:1" >
        <param key="name" value="Buslinie 164: Flughafen BER - Terminal 5 =&gt; S Köpenick"/>
        <param key="completeness" value="0.30"/>
    </flow>
    <flow id="pt_bus_160:1" type="pt_bus" route="pt_bus_160:1" begin="508.0" end="2308.0" period="600" line="160:1" >