<?xml version="1.0" encoding="UTF-8"?>

<!-- generated on 2023-03-09 12:03:13.612044 by randomTrips.py v1_16_0+0000-94ec4c6cd72
<configuration>
    <end value="1000"/>
    <length value="True"/>
    <net-file value="test.net.xml"/>
    <route-file value="map.rou.xml"/>
    <validate value="True"/>
</configuration>
-->

<!-- generated on 2023-03-09 12:03:12 by Eclipse SUMO duarouter Version 1.16.0
<configuration xmlns:xsi="http://www.w3.org/2001/XMLSchema-instance" xsi:noNamespaceSchemaLocation="http://sumo.dlr.de/xsd/duarouterConfiguration.xsd">

    <input>
        <net-file value="test.net.xml"/>
        <route-files value="trips.trips.xml"/>
    </input>

    <output>
        <output-file value="map.rou.xml"/>
        <alternatives-output value="NUL"/>
    </output>

    <time>
        <begin value="0"/>
        <end value="1000"/>
    </time>

    <report>
        <no-warnings value="true"/>
        <ignore-errors value="true"/>
        <no-step-log value="true"/>
    </report>

</configuration>
-->

<routes xmlns:xsi="http://www.w3.org/2001/XMLSchema-instance" xsi:noNamespaceSchemaLocation="http://sumo.dlr.de/xsd/routes_file.xsd">
    <vehicle id="2" depart="2.00">
        <route edges="45568798#0 45568798#1 45568798#2 209262053 145348933 45568793#0 45568793#1 4470840#0 4470840#1 4470840#2 383167849 45786309#0 45786309#1 45786309#2 383167847 209263579 32405 45360553 45569651 25774328 198642283 4706944#0 4706944#1 4706944#2 -968763923#1 -968763923#0 -968763924 -4696644#2 4764010 4764011 4764012 417402315 124452930 4798879 4764310 736368180 23802711 380554729 69067222#0 69067222#1 102058907 102058910#0 102058910#1 1058909732 4296031#0 4296031#1 4296031#2 4296031#3 4296031#4 4296031#5 25548629#0 25548629#1 25548629#2 -438870170#3 -438870170#2 -438870170#1 -438870170#0 438870170#0 438870170#1"/>
    </vehicle>
    <vehicle id="3" depart="3.00">
        <route edges="5003551#0 5003551#1 198642282 4717559#0 4717559#1 4717559#2 45886019#0 45886019#1 781156026 1047548239#0 1047548239#1 164500951 1136445712#0 1136445712#1 1136445712#2 1136445714 219273311#0 219273311#1 219273311#2 219273311#3 219273311#4 384212608#0 384212608#1 384212608#2 384212608#3 -45051111#2 -45051111#1 -45051111#0 28380058#0 28380058#1 28380058#2 4628076 196934179#0 196934179#1 196934179#2 196934179#3 196934179#4 -20448005#6 -20448005#5 -20448005#4 -20448005#3"/>
    </vehicle>
    <vehicle id="4" depart="4.00">
        <route edges="159409664 55668653 384218087 384218090 384218092#1 55668655#0 55668655#1 -706496749#2 -706496749#1 -706496749#0 239811653 164500948#0 164500948#1 1103822693 -156536760#2 -156536760#1 -156536760#0 -1097150695#2 -1097150695#1 -1097150695#0 -4475203#1 -4475203#0 -685023881#3 -685023881#2 -685023881#1 -685023881#0 -4494913#12 -4494913#11 -4494913#10 -4494913#9 -4494913#8 -4494913#7 -4494913#6 -4494913#5 -4494913#4 -4494913#3 -4494913#2 -4494913#1 -4494913#0 595233510 4741290 4741293 -83607382#7 -83607382#6 -83607382#5 -83607382#4 -83607382#3 -83607382#2 -83607382#1 -83607382#0 -595322020#1 -595322020#0 -4565331 -1097150694 -4521173 -132741010#1 -132741010#0 132741009 -4565330 4642285 33175470#0 33175470#1 33175470#2 33175470#3 33175470#4 47172045 47172044 -164087239 -331674956 -144176778#1 -144176778#0"/>
    </vehicle>
    <vehicle id="5" depart="5.00">
        <route edges="-4627827 4627827 47168897#0 47168897#1 204790849 4953268#0 4953268#1 4953268#2 4764294#0 4764294#1 4764294#2 42796910#0 42796910#1 42796910#2 42796910#3 42796910#4 4497326#0 4497326#1 4497326#2 4567177 527034495 144176629 9395410#0 9395410#1 4521175#0 4521175#1 4806324#0 4806324#1 4806324#2 4806324#3 45049551#0 45049551#1 4642284 33175469#0 33175469#1 33175469#2 47171928#0 47171928#1 47171928#2 4642283#0 4642283#1 164087238#0 164087238#1 164087238#2 11341160#0 11341160#1 11341160#2 11341160#3 380060006#0 380060006#1 380060006#2 -204735815 -4589098 -48869146 255159958 8104376 -25845035 226435372#0"/>
    </vehicle>
    <vehicle id="6" depart="6.00">
        <route edges="-143755503#1 -143755503#0 -4764318#3 -4764318#2 -4764318#1 -4764318#0 4764319 4764316#0 4764316#1 4764316#2 4764316#3 28379982#0 28379982#1 4696644#0 4696644#1 4696644#2 968763924 968763923#0 968763923#1 4706946#0 4706946#1 384210565#0 384210565#1 198642281#0 198642281#1 417627763 25774329#0 25774329#1 45570241 384185252 384185251 384186897 384186900 430737811 430737812 4745054 45359294#0 -45359294#0"/>
    </vehicle>
    <vehicle id="7" depart="7.00">
        <route edges="42796907#1 4644902#5 -4483920#1 -4483920#0 -209263690#3 -209263690#2 -209263690#1 -209263690#0 -1136445706#1 -1136445706#0 4827884#0 4827884#1 4827884#2 1136445711 1136445707#0 1136445707#1 45359713 45359292#0 4904139#3 4904139#4 4904139#5 4904139#6 45773042#0 45773042#1 45773048 45787305 45787463 383167848 383165156 159409015 32410 1126700706 124452933 3469486 216530233 478853690 478853371 55668656#1 891957416 202753581 891957415#0 891957415#1 250478231#0 250478231#1 218310239#0 218310239#1 250475812#0 250475812#1"/>
    </vehicle>
    <vehicle id="8" depart="8.00">
        <route edges="-4628070#1 -4628070#0 202753993#0 202753993#1 202753993#2 202753993#3 202753993#4 202753993#5 1097150696#0 1097150696#1 1097150695#0 1097150695#1 1097150695#2 156536760#0 156536760#1 156536760#2 1103822695 4839479#0 4839479#1 1103822694 4839480 143784299 4839475 4470836 4470837 3469492#0 3469492#1 4345003 23814109 4763862 380554196 417402316 124452930 4798879 4764310 736368180 4287403 380554728 93228761 205818724#0 205818724#1 69067205 69067225 975961077 3469494"/>
    </vehicle>
    <vehicle id="10" depart="10.00">
        <route edges="4763830 4345001 4345002#0 4345002#1 3469493 579403732 579403734 4470835 1801 1126700706 124452933 3469486 216530233 478853689 478853369#1 -22731338 202753580 -250478226 -20279749 -20279748 -732295445#7 -732295445#6 -732295445#5 -732295445#4 -732295445#3 -732295445#2 -732295445#1 -732295445#0 -26303872 -20279746#3 -20279746#2 -20279746#1 -20279746#0 -210429351#1 -210429351#0 -384212608#3 -384212608#2 -384212608#1 -384212608#0 198642284#0 198642284#1 198642284#2 198642284#3 43847349#0 43847349#1 43847349#2 1136445715 1136445706#0 1136445706#1 209263690#0 209263690#1 209263690#2 209263690#3 4483920#0 4483920#1 143769304#0 143769304#1 143769306#0 143769306#1 143769306#2 143769306#3 143769306#4 4764294#2 45886022 143769307#0 143769307#1 45049554#0 45049554#1"/>
    </vehicle>
    <vehicle id="11" depart="11.00">
        <route edges="10111730#1 10111730#2 -93269804#2 -93269804#1 -93269804#0 -8073108#2 -8073108#1 -8073108#0 9788059#0 9788059#1 9788059#2 11339912#0 11339912#1 5204135#0 5204135#1 45049551#0 45049551#1 -164087239 -331674956 -144176778#1 -144176778#0 23105621 1140388994 -42250357#1 -42250357#0 -385305539"/>
    </vehicle>
    <vehicle id="12" depart="12.00">
        <route edges="8104379 23219484 -232836120 -8752500 -888227533 -8104377 25845035 -8104376 4688524 48869146 4589098 204735815 466920153 379778508 480645065 4741295#0 4741295#1 4741295#2 4741295#3 4741295#4 4741295#5 4741295#6 4741295#7 4741295#8 4741295#9 4741295#10 4741295#11 4741295#12 9788059#0 9788059#1 9788059#2 11339912#0 11339912#1 47171927#0 47171927#1 4519159 12796510 35066914#0 35066914#1 380808410 4642304#0 4642304#1 4642304#2 4642304#3 721037390 4642302#0 4642302#1 4642302#2 4642302#3 201700816 26403933#0 26403933#1 26403933#2 45073934 26403934#0 26403934#1 26403934#2 26403934#3 143769307#0 143769307#1 45049554#0 45049554#1 45051074#0 45051074#1 144176630#0 144176630#1 144176630#2 144176630#3 144176630#4 45886019#0 45886019#1 781156026 1047548239#0 1047548239#1 164500951 45359295#0 45359295#1 45359295#2 45359713 1047548237"/>
    </vehicle>
    <vehicle id="14" depart="14.00">
        <route edges="4839475 4981569 199863045 3469491 45785312#0 45785312#1 45786309#0 45787463 383167848 1126700705 45787307#0 45787307#1 -45568793#1 -45568793#0 -145348933 -209262053 -45568798#2 -45568798#1 -45568798#0 4470838 37802142"/>
    </vehicle>
    <vehicle id="15" depart="15.00">
        <route edges="4764010 4764011 4764356 4829941 4764357#0 4764357#1 4764321 69067221#0 4799600 93230126#1 144176631#0 144176631#1 144176631#2 380100956 226152921#1 226150745 152135172 102730103 4345002#0 4345002#1 3469493 579403732 579403734 4470835 1801 1126700706 159409664 55668653 384218087 384218090 384218092#1 55668655#0 55668655#1 -706496749#2 -706496749#1 -706496749#0 239811653 164500948#0 164500948#1 1103822693 -156536760#2 -156536760#1 -156536760#0 -1097150695#2 -1097150695#1 -1097150695#0 -4475203#1 -4475203#0 -685023881#3 -685023881#2 -685023881#1 -685023881#0 -4494913#12 -4494913#11 -4494913#10 -4494913#9 -4494913#8 -4494913#7 -4494913#6 -4494913#5 -4494913#4 -4494913#3 -4494913#2 -4494913#1 -4494913#0 595233510 983637050#0 983637050#1 983637050#2 8119016#0 8119016#1 114002811#0 114002811#1 114002811#2 156536765 -28891695#3 -28891695#2 -28891695#1 -28891695#0 102147604#0 102147604#1 -4548199#4 -4548199#3 -4548199#2 -4548199#1 -4548199#0 4548298#0"/>
    </vehicle>
    <vehicle id="16" depart="16.00">
        <route edges="24317735#3 -24317735#3 -24317735#2 -24317735#1 -24317735#0 45568793#1 4470840#0 4470840#1 159409015 32410 1126700706 124452933 3469486 216530233 478853689 478853369#1 -22731338 202753580 20279843 250478229#0 250478229#1 250478229#2 250478229#3 250478229#4 250478229#5 250478229#6 1039370199 554903307#0 554903307#1 554903307#2 554903307#3 889984798#1 889984798#2"/>
    </vehicle>
    <vehicle id="17" depart="17.00">
        <route edges="124452933 3469486 216530233 478853689 478853369#1 -22731338 202753580 -250478226 -20279749 -20279748 -732295445#7 -732295445#6 -732295445#5 -732295445#4 -732295445#3 -732295445#2 -732295445#1 -732295445#0 -26303872 -20279746#3 -20279746#2 -20279746#1 -20279746#0 4470839#0 4470839#1 4470839#2 4470839#3 4470839#4 45773042#0 45773042#1 45773048 45787308 45786309#2 383167847 209263579 32405 45360553 45569651 25774329#0 25774329#1"/>
    </vehicle>
    <vehicle id="18" depart="18.00">
        <route edges="4799419 121017978 581608793 581608796#0 581608796#1 4644889#0 4644889#1 4644889#2 4750191#0 4750191#1 4750189#0 4750189#1 4750189#2 4750189#3 4750189#4 4750189#5 205820315 205820313 204866197#0 204866197#1 4745019#0 4745019#1 4745019#2 4745019#3 4745019#4 4745019#5 4745019#6 4745019#7 4745019#8 384186891#2 384186891#3 384189457"/>
    </vehicle>
    <vehicle id="21" depart="21.00">
        <route edges="-4677742#1 -4677742#0 -202753992#2 -202753992#1 -202753992#0 -4475215#8 -4475215#7 -4475215#6 -4475215#5 -4475215#4 -4475215#3 -4475215#2 -4475215#1 -4475215#0 -4494913#12 -4494913#11 -4494913#10 -4494913#9 -4494913#8 -4494913#7 -4494913#6 -4494913#5 -4494913#4 -4494913#3 -4494913#2 -4494913#1 -4494913#0 595233510 4741290 162901771#1 12682521 -4494912#5 -4494912#4 -4494912#3 -4494912#2 -4494912#1 -4494912#0 99798486 206317572 958054763 197572274 26410601#0 26410601#1 26410601#2 26410600#0 26410600#1 4717601 4627913#0 4627913#1 4627913#2 45074078#0 45074078#1 144176629 4548443#0 4548443#1 380618972 -730447301#1 -730447301#0"/>
    </vehicle>
    <vehicle id="24" depart="24.00">
        <route edges="41276782 41276783 4869273#0 4869273#1 4869273#2 4296031#0 4296031#1 4296031#2 4799422 380554725 69067201 736368181 4798872 69067218 4763830 4345001 4345002#0 4345002#1 3469493 579403732 579403734 4470835 1801 1126700706 159409664 55668653 384218087 384218090 384218092#1 55668655#0 55668655#1 -706496749#2 -706496749#1 -706496749#0 239811653 164500948#0 164500948#1 1103822693 -156536760#2 -156536760#1 -156536760#0 -1097150695#2 -1097150695#1 -1097150695#0 -4475203#1 -4475203#0 -685023881#3 -685023881#2 -685023881#1 -685023881#0 4475215#0 4475215#1 4475215#2 4475215#3 -122443237#4 -122443237#3 -122443237#2 -122443237#1 -122443237#0 122443237#0"/>
    </vehicle>
    <vehicle id="25" depart="25.00">
        <route edges="119028145 386959075 386959076 1074240853 1735 205818337 22731427 163763584 4287401 4784924 129627171 380554727 69067201 736368181 4798872 4798873 4764320#0 4764320#1 417402319 4829972 4764316#3 28379982#0 28379982#1 4696644#0 4696644#1 4696644#2 968763924 968763923#0 968763923#1 4706946#0 4706946#1 384210565#0 384210565#1 198642281#0 45569652 417627767 45360552 -209263579 -383167847 190360290 383167848 1126700705 45787307#0 45787307#1 -45568793#1 -45568793#0 -145348933 -209262053 -45568798#2 -45568798#1 -45568798#0"/>
    </vehicle>
    <vehicle id="28" depart="28.00">
        <route edges="-431740498#1 -431740498#0 -4565330 4614747 132741010#0 132741010#1 4521173 1097150694 4565331 595322020#0 595322020#1 83607382#0 83607382#1 83607382#2 83607382#3 83607382#4 83607382#5 83607382#6 83607382#7 4741292 4741291#0 595650582 983637050#0 983637050#1 983637050#2 8119016#0 8119016#1 4494926#0 4494926#1 4494926#2 4494926#3 4494926#4 4494926#5 4494926#6 4494926#7 4844455#0 4844455#1 4844455#2 4844457#0 4844457#1 4844457#2 4548297#2 4548297#3"/>
    </vehicle>
    <vehicle id="29" depart="29.00">
        <route edges="-42250357#1 -42250357#0 -385305539 -739539654 739539654 385305539 42250357#0 42250357#1 -1140388994 -23105621 144176778#0 144176778#1 331674956 164087239 4642284 11339909 47171927#0 47171927#1 4519159 12796510 35066914#0 35066914#1 380808600#0 380808600#1 995103496 588506827 466695357#0 466695357#1 466695357#2 389802136 389802137 203957021#0 203957021#1 203957021#2 203957021#3 389802951#0 389802951#1 389802951#2 69067227 4876190#0 4876190#1 4876190#2 4876190#3 4876189 1058909732 4296031#0 4296031#1 4296031#2 4296031#3 4296031#4 4296031#5 4296031#6 4296031#7 4296031#8 4296031#9 4296031#10 69067200 736368261 736368260 4296033 93230126#0 93230126#1 144176631#0 144176631#1 93230129 4764318#0 4764318#1 4764318#2 4764318#3 143755503#0 143755503#1 143755503#2 143755503#3"/>
    </vehicle>
    <vehicle id="30" depart="30.00">
        <route edges="968763898#1 45359065#0 45359065#1 -45359065#1 -45359065#0 -968763898#1 -968763898#0 -4904149#3 -4904149#2 -4904149#1 -4904149#0 45359120#0 4904139#0 4904139#1 4904139#2 45359292#1 45359292#2 45359292#3 209263579 32405 45360553 45569651 25774328 198642283 4706944#0 4706944#1 4706944#2 -968763923#1 -968763923#0 -968763924 -4696644#2 4764010 4764011 4764012 417402315 124452930 4798879 4764310 736368180 23802711 380554729 69067222#0 69067222#1 102058907 102058910#0 102058910#1 1058909732 4296031#0 4296031#1 4296031#2 4799422 380554725 69067201 736368181 4798872 4798873 4764320#0 4764320#1 417402319"/>
    </vehicle>
    <vehicle id="31" depart="31.00">
        <route edges="25739963#4 -4494926#1 -4494926#0 -4844449#2 -4844449#1 -4844449#0 4677446#1 -172206441 -58648676#7 -58648676#6 -58648676#5 -58648676#4 -58648676#3 4494913#3 4494913#4 4494913#5 4494913#6 4494913#7 4494913#8 4494913#9 4494913#10 4494913#11 4494913#12 685023881#0 685023881#1 685023881#2 685023881#3 4475203#0"/>
    </vehicle>
    <vehicle id="32" depart="32.00">
        <route edges="4829972 -4764316#2 -4764316#1 -4764316#0 4745226#0 4745226#1 4764321 69067221#0 69067221#1 69067221#2 4764308 69067210 736368178 736368179 69067217#0 69067217#1 69067217#2 69067217#3 69067217#4 69067217#5 69067217#6 69067217#7 69067217#8 4764309#0 4764309#1 4764309#2 102058907 226286791 595322007 -389802951#2 -389802951#1 -389802951#0 -203957021#3 -203957021#2 -203957021#1 -203957021#0 -389802137 152827342 112804960#0 112804960#1 389802134#0 389802134#1 389802134#2 389802134#3 389802134#4 151952408 735349187 735349189 9395410#0 9395410#1 4521175#0 4521175#1 4806324#0 4806324#1 4806324#2 4806324#3 45049551#0 45049551#1 4642284 33175469#0 33175469#1 33175469#2 47171928#0 47171928#1 47171928#2 4642283#0 4642283#1 164087238#0 164087238#1 164087238#2 11341160#0 11341160#1 11341160#2 11341160#3 380060006#0 380060006#1 380060006#2 -204735815 -15090877#2 -15090877#1 -15090877#0 204735814 386968518 744917131 -74607873 5204080 731731052 728064899 4713085"/>
    </vehicle>
    <vehicle id="33" depart="33.00">
        <route edges="-4677742#3 -4677742#2 -4677742#1 -4677742#0 -202753992#2 -202753992#1 -202753992#0 4628071#0 4628071#1 4628071#2 4628071#3 4628071#4 202753993#0 202753993#1 202753993#2 202753993#3 202753993#4 202753993#5 1097150696#0 1097150696#1 1097150695#0 1097150695#1 1097150695#2 156536760#0 156536760#1 156536760#2 1103822695 4839479#0 4839479#1 1103822694 4839480 143784299 4839474#0 4839474#1 170560357 891957416 202753581 891957415#0 891957415#1 250478231#0 250478231#1 218310239#0 218310239#1 -24317833 -145348391#3 -145348391#2 -145348391#1 -145348391#0 -31255614 -31255613 -118794905 -31255612 -209281127 -145348390#1 -145348390#0"/>
    </vehicle>
    <vehicle id="35" depart="35.00">
        <route edges="-45494613#0 -22752434 22752434 45494613#0 45494613#1 -895933691 -895933692 -55668652#4 -55668652#3 -55668652#2 -55668652#1 -55668652#0 -478849147 -478849145#1 -478849145#0 -55668651 -8073060 -250475790#2 -250475790#1 -250475790#0 -706496749#2 -706496749#1 -706496749#0 239811653 164500948#0 164500948#1 1103822693 -156536760#2 -156536760#1 -156536760#0 -1097150695#2 -1097150695#1 -1097150695#0 -4475203#1 -4475203#0 -685023881#3 -685023881#2 -685023881#1 -685023881#0 -4494913#12 -4494913#11 -4494913#10 -4494913#9 -4494913#8 -4494913#7 -4494913#6 -4494913#5 -4494913#4 -4494913#3 -4494913#2 -4494913#1 -4494913#0 595233510 4741290 4741293 -83607382#7 -83607382#6 -83607382#5 -83607382#4 -83607382#3 -83607382#2 -83607382#1 -83607382#0 -595322020#1 -595322020#0 -4565331 -1097150694 -4521173 -132741010#1 -132741010#0 132741009 -4565330 4642285 33175470#0 33175470#1 33175470#2 33175470#3 33175470#4 47172045 47172044 4642284 33175469#0 33175469#1 33175469#2 47171928#0 47171928#1 47171928#2 4642283#0 4642283#1 164087238#0 164087238#1 164087238#2 11341160#0 11341160#1 11341160#2 11341160#3 380060006#0 380060006#1 380060006#2 -204735815 -15090877#2 -15090877#1 -15090877#0 204735814 386968518 744917131 -74607873 5204080 731731052 728064899 4713085 944632790 5204079 4713086#0 4713086#1 941149808 5218768 74607883"/>
    </vehicle>
    <vehicle id="36" depart="36.00">
        <route edges="4904139#3 -4904139#3 45359292#1 45359292#2 45359292#3 209263579 32405 45360553 45569651 25774328 198642283 4706944#0 4706944#1 4706944#2 -968763923#1 -968763923#0 -968763924 -4696644#2 4764010 4764011 4764012 417402315 124452930 4798879 4764310 736368180 23802711 380554729 69067222#0 69067222#1 102058907 226286791 595322007 69067227 4876190#0 93256779#0 93256779#1 -93256779#1"/>
    </vehicle>
    <vehicle id="37" depart="37.00">
        <route edges="4287401 4799419 121017978 581608793 581608796#0 581608796#1 4798846#0 4798846#1 4798846#2 257885010#0 257885012#0 257885012#1 69067217#6 69067217#7 69067217#8 4764309#0 4764309#1 4764309#2 102058907 226286791 595322007 69067227 990822936#0 990822936#1 990822936#2 25566799#0 25566799#1 995103498 973334483#0 973334483#1 26404121 973334484 990822938 990822937 990822939#0 990822939#1 9702683#0 9702683#1 981838943 595322005#0 595322005#1 595322001 42805766#0 42805766#1 226435395 42805767 -153227133 -34990734 34990734 153227133"/>
    </vehicle>
    <vehicle id="38" depart="38.00">
        <route edges="58169415 417415065 4787475#0 4787475#1 198044378#4 -1089452022#5 -1089452022#4 -1089452022#3 -1089452022#2 -1089452022#1 -1089452022#0 -47168895#1 -47168895#0 4494913#6 4494913#7 4494913#8 4494913#9 4494913#10 4494913#11 4494913#12 685023881#0 685023881#1 685023881#2 685023881#3 4475203#0 4475203#1 -1097150696#1 -1097150696#0 -202753993#5 -202753993#4 -202753993#3 -202753993#2 -202753993#1 -202753993#0 4628070#0 4628070#1 4628070#2 4628070#3 202753994#0"/>
    </vehicle>
    <vehicle id="39" depart="39.00">
        <route edges="-485899794#0 -45359877#13 -45359877#12 -45359877#11 -45359877#10 -45359877#9 -45359877#8 -45359877#7 -45359877#6 -45359877#5 -45359877#4 -45359877#3 -45359877#2 -45359877#1 -45359877#0 -96646975#2 -96646975#1 -96646975#0 -4839478#3 -4839478#2 -4839478#1 -4839478#0 24324676#0 24324676#1 -156536760#2 -156536760#1 -156536760#0 -1097150695#2 -1097150695#1 -1097150695#0 -4475203#1 -4475203#0 -685023881#3 -685023881#2 -685023881#1 -685023881#0 -4494913#12 -4494913#11 -4494913#10 -4494913#9 -4494913#8 -4494913#7 -4494913#6 -4494913#5 -4494913#4 -4494913#3 -4494913#2 -4494913#1 -4494913#0 595233510 4741290 4741293 -83607382#7 -83607382#6 -83607382#5 -83607382#4 -83607382#3 -83607382#2 -83607382#1 -83607382#0 -595322020#1 -595322020#0 -4565331 -1097150694 -4521173 -132741010#1 -132741010#0 132741009 -4565330 4642285 33175470#0 33175470#1 33175470#2 33175470#3 33175470#4 47172045 47172044 -164087239 -331674956 -144176778#1 -144176778#0 -4806323#1"/>
    </vehicle>
    <vehicle id="40" depart="40.00">
        <route edges="26404121 973334484 990822938 990822937 990822939#0 990822939#1 -990822939#1 -990822939#0 -990822937 -990822938 -973334484 -26404121 -973334483#1 -973334483#0 -995103498 -25566799#1 -25566799#0 -990822936#2 -990822936#1 -990822936#0 4876190#0 4876190#1 4876190#2 4876190#3 4876189 1058909732 4296031#0 4296031#1 4296031#2 4799422 380554725 69067201 736368181 4798872 4798873 4764320#0 4764320#1 417402319 4829972 4764316#3 28379982#0 28379982#1 4696644#0 4696644#1 4696644#2 968763924 968763923#0 968763923#1 4706946#0 4706946#1 384210565#0 384210565#1 198642281#0 198642281#1 417627763 25774329#0 25774329#1 45570241 384185252 384185251 384186897 384186900 430737811 384186903 1047548239#0 1047548239#1 164500951 45359295#0 45359295#1 45359295#2 45359713 45359292#0 4904139#3 -4904139#3"/>
    </vehicle>
    <vehicle id="42" depart="42.00">
        <route edges="145348390#0 145348390#1 209281127 31255612 118794905 31255613 31255614 145348391#0 145348391#1 145348391#2 145348391#3 250475811#0 250475811#1 250475811#2 250478232#0 250478232#1 202753587 170560360 417577245 22731341#0 22731341#1 55668654 384218092#0 384218092#1 55668655#0 55668655#1 -706496749#2 -706496749#1 -706496749#0 239811653 164500948#0 164500948#1 1103822693 -156536760#2 -156536760#1 -156536760#0 -1097150695#2 -1097150695#1 -1097150695#0 -4475203#1 -4475203#0 -685023881#3 -685023881#2 -685023881#1 -685023881#0 -4494913#12 -4494913#11 -4494913#10 -4494913#9 -4494913#8 -4494913#7 -4494913#6 47168895#0 47168895#1 1089452022#0 4638062#0 4638062#1 -4638062#1 -4638062#0"/>
    </vehicle>
    <vehicle id="43" depart="43.00">
        <route edges="990822937 990822939#0 990822939#1 -990822939#1 -990822939#0 -990822937 -990822938 -973334484 -26404121 -973334483#1 -973334483#0 -995103498 -25566799#1 -25566799#0 -990822936#2 -990822936#1 -990822936#0 4876190#0 4876190#1 4876190#2 4876190#3 4876189 1058909732 4296031#0 4296031#1 4296031#2 4296031#3 4296031#4 4296031#5 4296031#6 4296031#7 4296031#8 262604454#1 257885007 257885008#0 69067217#4 69067217#5 69067217#6 69067217#7 69067217#8 4803159 185756883 205818724#0 205818724#1 69067205 69067225 975961077 3469494 22731425 22731426"/>
    </vehicle>
    <vehicle id="45" depart="45.00">
        <route edges="-24299230#2 -45460141 -24299225 -28379992#3 -28379992#2 -28379992#1 -28379992#0 -4701545 4696644#0 4764009 4764011 4764012 417402315 124452930 4798879 4764310 736368180 23802711 380554729 69067222#0 69067222#1 102058907 226286791 595322007 -389802951#2 -389802951#1 -389802951#0 -203957021#3 203957021#3 389802951#0"/>
    </vehicle>
    <vehicle id="46" depart="46.00">
        <route edges="4744977#1 4744977#2 4744977#3 4744977#4 382336252 382336253#0 382336253#1 382336253#2 5003551#0 5003551#1 198642282 4717559#0 4717559#1 4717559#2 45886021 4483894#0 4483894#1 4483894#2 4483894#3 42796907#0 42796907#1 45051073#0 45051073#1 198044382#0 198044382#1 198044382#2 198044382#3 42796910#0 42796910#1 42796910#2 42796910#3 42796910#4 4497326#0 4497326#1 4497326#2 4567177 527034495 144176629 9395410#0 9395410#1 4521175#0 4521175#1 4806324#0 4806324#1 4806324#2 4806324#3 45049551#0 45049551#1 4642284 33175469#0 33175469#1 33175469#2 47171928#0 47171928#1 47171928#2 4642283#0 4642283#1 11340950#0 11340950#1 11340950#2 164087244#0"/>
    </vehicle>
    <vehicle id="47" depart="47.00">
        <route edges="-198044378#1 -198044378#0 -198969727#1 -198969727#0 -4683299 143769308#0 143769308#1"/>
    </vehicle>
    <vehicle id="48" depart="48.00">
        <route edges="9787930#2 9787930#3 9787930#4 4741295#5 4741295#6 4741295#7 4741295#8 4741295#9 4741295#10 4741295#11 4741295#12 9788059#0 9788059#1 9788059#2 11339912#0 11339912#1 5204135#0 5204135#1 8104173#0 8104173#1 8104173#2 8104174 -33175470#4 -33175470#3 -33175470#2 -33175470#1 -33175470#0 -4642285 4565330 431740498#0 431740498#1 431740498#2 431740498#3 431740498#4 431740498#5 431740498#6 4567181 4856735 4589100 45103741 24300166 24300160"/>
    </vehicle>
    <vehicle id="49" depart="49.00">
        <route edges="8752500 232836120 -23219484 -8104379 4638059 -4638059 8104379 23219484 -232836120 -8752500 -888227533 -8104377 25845035 -8104376 4688524 48869146 4589098 204735815 466920153 379778508 480645065 4741295#0 4741295#1 4741295#2 4741295#3 4741295#4 4741295#5 4741295#6 4741295#7 4741295#8 4741295#9 4741295#10 4741295#11 4741295#12 9788059#0 9788059#1 9788059#2 11339912#0 11339912#1 5204135#0 5204135#1 8104173#0 8104173#1 8104173#2 8104174 -33175470#4 -33175470#3 -33175470#2 -33175470#1 -33175470#0 -4642285 4565330 431740498#0 431740498#1 431740498#2 431740498#3 431740498#4 431740498#5 431740498#6 4567181 4856735"/>
    </vehicle>
    <vehicle id="50" depart="50.00">
        <route edges="-11340943 11340943 164087238#0 164087238#1 -11340438#0 4741295#7 4741295#8 4741295#9 4741295#10 4741295#11 4741295#12 9788059#0 9788059#1 9788059#2 11339912#0 11339912#1 47171927#0 47171927#1 4519159 12796510 35066914#0 35066914#1 380808410 4642304#0 4642304#1 4642304#2 4642304#3 721037390 4642302#0 4642302#1 4642302#2 4642302#3 201700816 26403933#0 26403933#1 26403933#2 45073934 26403934#0 26403934#1 26403934#2 26403934#3 143769307#0 143769307#1 45049554#0 45049554#1 45051074#0 45051074#1 144176630#0 144176630#1 144176630#2 144176630#3 144176630#4 45886019#0 45886019#1 430737809#0 430737809#1 203031430#0 203031430#1 45359294#1 45359294#2 45359294#3 45359293"/>
    </vehicle>
    <vehicle id="51" depart="51.00">
        <route edges="4470836 4470837 3469492#0 3469492#1 4345003 23814108 65001620#0 121942167 384189462#1 -384186891#3 -384186891#2 -384186891#1 -384186891#0 384185250#0 384185250#1 384185250#2 384186893#0 384186893#1 384186897 384186900 430737811 384186903 1047548239#0 1047548239#1 164500951 1136445712#0 1136445712#1 1136445712#2 1136445714 219273311#0 219273311#1 219273311#2 219273311#3 219273311#4 384212608#0 384212608#1 384212608#2 384212608#3 210429351#0 210429351#1 20279746#0 20279746#1 20279746#2 20279746#3 26303872 732295445#0 732295445#1 732295445#2 732295445#3 732295445#4 732295445#5 732295445#6 732295445#7 20279748 20279749 250478226 -202753580 -22731340#1 -22731340#0 -22731339 -202753584 -45494613#1 -45494613#0 -22752434 24324664#0"/>
    </vehicle>
    <vehicle id="53" depart="53.00">
        <route edges="-24299417#1 -24299417#0 209249182#0 209249182#1 209249182#2 202737433#0 202737433#1 202737432#0 202737432#1 742377812 4745087 198642281#0 198642281#1 45570414 198642283 4706944#0 4706944#1 4706944#2 -968763923#1 -968763923#0 -968763924 -4696644#2 -4696644#1 -4696644#0 -28379982#1 4799012 4799021#1 939539211 939539210#0 939539210#1 939539209 939539208 121942676 939539206 939539207 4301352 421690237 939539205 939539203 939539202 4295451#0 4295451#1 4295451#2 939539204 598321348 -177461757#4 -177461757#3 -177461757#2 -177461757#1 -177461757#0 177461757#0 177461757#1 177461757#2 177461757#3 177461757#4"/>
    </vehicle>
    <vehicle id="54" depart="54.00">
        <route edges="198044378#4 -198044378#4 -198044378#3 -198044378#2 -198044378#1 -198044378#0 4787455#0 4787455#1 417415066 99798486 206317572 958054763 197572274 26410601#0 26410601#1 26410601#2 4717604 380618974#4 380618974#5 380618974#6 380618974#7 730447301#0 730447301#1 380618973#0 380618973#1 9395410#1 4521175#0 4521175#1 4806324#0 4806324#1 77669321 730036973 -14591300#1 -14591300#0 -8073923#0 8073923#0"/>
    </vehicle>
    <vehicle id="55" depart="55.00">
        <route edges="4903953#1 45886020#0 45886020#1 -1136445706#1 -1136445706#0 4827884#0 4827884#1 4827884#2 1136445711 1136445707#0 1136445707#1 45359713 45359292#0 4904139#3 4904139#4 4904139#5 4904139#6 -4904139#6"/>
    </vehicle>
    <vehicle id="58" depart="58.00">
        <route edges="-74607883 -5218768 -941149808 -4713086#1 -4713086#0 -5204079 -944632790 -4713085 -728064899 -731731052 -5204080 74607873 742082351 22731430 428096145 15090877#0 15090877#1 15090877#2 204735815 466920153 379778508 480645065 4741295#0 4741295#1 4741295#2 4741295#3 4741295#4 4741295#5 4741295#6 4741295#7 4741295#8 4741295#9 4741295#10 4741295#11 4741295#12 9788059#0 9788059#1 9788059#2 11339912#0 11339912#1 5204135#0 5204135#1 8104173#0 8104173#1 8104173#2 8104174 -33175470#4 -33175470#3 -33175470#2 -33175470#1 -33175470#0 4995802#0 4995802#1 4995802#2 4995802#3 4521172 124905887#0 124905887#1 386617899 386617897 4760219 386617898#0 386617898#1 386617898#2 262604451 1089451383#0 1089451383#1 206317573 1089451382#0 1089451382#1 1089451382#2 83607382#1 83607382#2 83607382#3 83607382#4 83607382#5 83607382#6 83607382#7 4741292 4741291#0 4741291#1 4494913#0 4494913#1 4494913#2 4494913#3 4494913#4 4494913#5 4494913#6 4494913#7 4494913#8 4494913#9 4494913#10 4494913#11 4494913#12 685023881#0 685023881#1 685023881#2 685023881#3 4475203#0 4475203#1 1097150695#0 1097150695#1 1097150695#2 156536760#0 156536760#1 156536760#2 1103822695 4839479#0 4839479#1 1103822694 4839480 143784299 4839475 4470836 4470837 3469492#0 3469492#1 4345003 23814109 4763862 380554196 417402316"/>
    </vehicle>
    <vehicle id="59" depart="59.00">