<?xml version="1.0" encoding="UTF-8"?>

<!-- generated on 2023-03-09 11:30:11.718186 by randomTrips.py v1_16_0+0000-94ec4c6cd72
<configuration>
    <end value="1000"/>
    <length value="True"/>
    <net-file value="test.net.xml"/>
    <route-file value="map.rou.xml"/>
    <validate value="True"/>
</configuration>
-->

<!-- generated on 2023-03-09 11:30:07 by Eclipse SUMO duarouter Version 1.16.0
<configuration xmlns:xsi="http://www.w3.org/2001/XMLSchema-instance" xsi:noNamespaceSchemaLocation="http://sumo.dlr.de/xsd/duarouterConfiguration.xsd">

    <input>
        <net-file value="test.net.xml"/>
        <route-files value="trips.trips.xml"/>
    </input>

    <output>
        <output-file value="map.rou.xml"/>
        <alternatives-output value="NUL"/>
    </output>

    <time>
        <begin value="0"/>
        <end value="1000"/>
    </time>

    <report>
        <no-warnings value="true"/>
        <ignore-errors value="true"/>
        <no-step-log value="true"/>
    </report>

</configuration>
-->

<routes xmlns:xsi="http://www.w3.org/2001/XMLSchema-instance" xsi:noNamespaceSchemaLocation="http://sumo.dlr.de/xsd/routes_file.xsd">
    <vehicle id="2" depart="2.00">
        <route edges="3981449 4642920 32668031 77526981 77526984 77527669 123079570 35263159 77519321 77519322 93474749 93474759 4891231#1 77531018 77531019 77531020 4643367#1 4927041 503055878 503055876 77531021 96808899 96808812 77531068 244592083 244592082 37343337 124988774 124988777 229267262 4927042#2 4927042#0 229267264 -229267261 -124988775 -124988773 -676557315 -676557316 -676557318 -124988776 676371224 676371219 676371222 547761374 -127689642 -401779491 -401779424 -134992871 -401779486 -401779475 -251779794 -77532014 -401779456 -401779432 -401779477 -401779430 -39467983 -401779468 251749640 251749635 251749641 251749638 -77532338 77532337 547761366 223433773 676600492 676600497 331813162 -401779461 -401779470 -401779443 -401779480 -251712237 -401779450 -401779482 -401779472 -251681745 -229209353 -229209354 -251683324 -401779465 -401779436 -401779484 -401779488 -401779453 -401779446 -77603776 -401779427 -401779493 -77603808 -401779439 -401779496 -1053081117 -1053081118 -251711600 -143764508 -143764507 -251712880 -401779458 -251712881 251712879 206419545 547761363 993362867 993362874 993362866 1125482340 4927045 112187674 979572127 979572126 26172272 26172273 199881208 23045689 199881207 23045691 36949400 36949401 979570062 43581017 1031071491 990490960 1100562379 990490961 990586171 1031071490 4701199 32612713 401783225 688187706 688187699 688187700 688192839 223429084 223429078 979569626 325045765 32986438#1 223429080 401783215 401783224 401783227 401783218 401783220 32985723 199859162 401783214 401783222 401783226 401783223 199859161 401783219 401783216 67915365 199829822 199829823 401783217 239827001 401783221 207503497 239826999 324053257 -152015865 30821035 465710892 465709254 28979723 465709250 465709251 1098333650 1104903482 1096855251 239314058 239314060 -401790580 -401790583 239559862 239559866 401790578 401790581 239559865 145299560 145299559 -77604318 -1077902772 77604460 683981207 -30820980 -683979602 -683979606 -683980809 -1100569841 -1100569842 -683995003 -683995002 -28956307 23944846 37602628 37602629 30824131 27546168 27558618 683242416 683243888 683243889 683242415 27546082 683362596 683362597 199103998 199104012 683376587 683376588 199104003 199104007 873108610 1104898875 706809466 30823909 683378664 683378665 23944847 32768031 32768033 239754206 683386025 30823830 683386026 239754205 683397059 683397060 239755994 683397058 683397061 239755996 683397380 -683397377 -683400703 -683400702 -239859370 -683400701 239859368 239859366 683406368 683406367 239859365 683407491 683407492 683407488 683407486 683407485 683407484 239865324 239865326 338125544 338126163 239865327 239865329 199551085 683410804 401747361 401747362 239865330 199551082 683411340 683411339 683411338 683411337 683418777 683418775 239883852 683418772 683418773 683421949 239883856 239883847 239883851 781597264 781597263 239883854 199551083 199551086 239883849 781597262 781597261 29298294 194664256 112184242 112184249 432471498 432471504 432471505 432471499 112184240 112184246 112184255 112184236 3992761 781597260 781597259 781597256 781597255 27701991 94577612 921051643 211406155 5886232 38060940 38060906 3992765 135902553 135902571 921053475 211406192 135899274 135899272 211406438 3992755 207937255 161184678 135903025 135903029 135903026 135903033 161183835 38061099 135903561 135903555 38061098 1120797066 949385234 949385233 921066211 921079643 921079642 921079641 100720202 1082665465 230145165 935302238 935302237 4673126#0 4673126#1 4673126#2 935302244 4673123 4673127#0 4673127#1 4673127#2 935302248 935302247 4673125#0 4673125#1 43584245 100694170#0 100694170#1 521661897 521661891 521661855 230145163 946138116#0 946138116#1 4607255 31992715 859481423 859481422 31992716 31992719 484726181 484726182 2535040 46785214 46785213 46785064 133083783 133083785 865752382 865752381 4608625 1082665464 858813335 1082662006 4652420 975971057 975971059 975971055 46783700 46782240 397273456 397273454 46782211 -892495625 2543097 28871632 754899657 892495626 39646662#0 39646662#1 39646662#2 79526676 79526674#0 79526674#1 979377136 4648404#0 4648404#1 979377135#0 979377135#1 979377134 979377133#0 979377133#1 4648406 1082662005 4648402#2 1082662004 4682276 118385381 118385393 185076280#0 185076280#1 185076280#2 734443492#0 734443492#1 185076283#0 185076283#1 707030506 707030507 707030508 118385402 118385403 301517095 592199679 717611299 4681927#0 4681927#1 301599812 743740210 4681929 4641167#0 4641167#1 63951323 930151226 -239776609 -871768442 -912980268 -871768445 -871768444 -871768446 -66467118 -871768443 -871768441 -1000766221 -239771125 -4641160 4043774 930151230 118381969 118381970 930151233 1082662012 4043785 4043780 4043781 38927975 38927971 4042115 1082662011 904401823 118285507 904401822 4143441 922866031 149044163 18535071 149044146 149044170 922866036 18535075 922866035 118285578 118285514 46161732 25023785 149038975 1082662002 4854186 149038978#0 149038978#1 4018192 108429428 1082662000#0 1082662000#1 921814119 4037728 921645290 384636808 1115591758 384636809 384637999#0 384637999#1 384637999#2 926203184 926203181#0 926203181#1 926203180 8153045 -8308758 384637998 502978855 777269138 905551636 502978857 905551639 8308759 1082661999 25415374#0 25415374#1 1082661998 682158059 502978860 4801664 8463917 919903533 144834864 -8153111#1 -8153111#0 -502196981 -502196982 -146658785 -757674089 -757674090 -377392193 17088542#0 17088542#1 -997463020 -342220610 342220762 4803209 8412741 850437077 8412743 692608728 692608727 692608723 1081218982 8470380#0 8470380#1 8470380#2 8470380#3 32706825 8463989 70601837 70601840#0 70601840#1 70601840#2 860342847 8153214#0 8153214#1 28303502 860342851 10511856 993329544 860342852 922516070 757087698 109572740 26144200 26144198 759235563 757087697 26154685#0 26154685#1 26154685#2 26154685#3 926216385 109493323 26403852 26445961#0 26445961#1 26403854 921973203 26242371 26242369 26504903 104190354#0 104190354#1 104189923 31555113 31555114 104190171#0 104190171#1 1082661997 4449349 149036970 1082662003 4154417 64445438 64444744 53510578 53509483 149034944 149034927 26505772 26505771 39131091 39137484 38703967 38703968 38703479 38783933 4154415 149033654 149033652 38703339 38703320 38703292 38703291 149032649 149032644 38703168 38703164 149030730 4154412 149030750 149030752 38703062 38703061 52007318 52007319 38309182 38309181 226354868 432421512 149022279 149022282 5930262 5930259 4154983 969244896 208117879 966536152 966536146 699740037 168587206 4154985 162818408 162818436 29331565 29331572 376942086 29331616 29330623 29331920 208486189 379888364 225077712 240866061 3998289 225077714 476493309 528690690 129318176 432220734 117277629 113979775 144029966 144029944 94583452 94583451 144029978 144029970 94583458 111202988 144029948 144029923 144029960 144029921 122129503 122129504 122818612 1019512140 3998279 9942260 25024032 144027126 144027123 25024031 205883550 3998275 33181688 33181690 10487564 10487579 118143692 118143690 144026355 1019515383 1019515380 144026353 3998270 33182412 33182413"/>
    </vehicle>
    <vehicle id="3" depart="3.00">
        <route edges="546683549 173130158 200051899 413667667 413667666 45591881 45591880 45773858 162011446 27109890 162011702 27109853 386194377 386194379 162006742 162012188 116596754 26961455 431351543 133081914 133081925 431351127 45050987 431351129 379102197 431351154 26961458 200051858 26961460 200051859 26961465 772921250 772921249 39888811 39888817 117219277 117219287 3654816 430646061 430646060 3700971 4287453 1078937390 4287454 164389297 206878366 206878365 206878363 3701035 4287438 1078937389 4287439 164390705 3654815 430646063 430646062 671409474 3654806 117219290 117219275 39888849 39888847 772921248 772921247 26961464 26961462 27172304 106797790 379589868 431351130 45050989 431351126 143885166 133081905 431351544 106797785 106797780 386194381 386194383 386194385 162006130 27109881 123103651 27109882 45773883 45591878 45591879 10262439 975680787 10262442 45773620 200051860 119028145 386959075 386959076 1074240853 1735 205818337 22731427 163763584 4287401 4784924 129627171 380554727 69067201 736368181 4798872 69067218 4763830 4345001 4345002#0 4345002#1 3469493 579403732 579403734 4470835 1801 1126700706 124452933 24324609 45494754 114331028 118222680 92146016 92146012 1797 33891169 33891168 3469116 33891164 33891162 149795898 24732714 24732688 234046172 26789101 43667546 315215585 234039611 198749008 198749009 92409261 198851355 8597407 24703988 315215591 26282030 160286335 23654472 22973747 24703993 230361906 160286385 22973745 32286 160287195 160287197 160287190 160287406 1013615476 230613208 160287458 160288641 160288670 26282705 160288602 160288603 26291324 31538705 31538706 114433702 228118613 32015045 32015046 26291424#1 -148255751 -228118615"/>
    </vehicle>
    <vehicle id="5" depart="5.00">
        <route edges="-43522465#0 43522465#0 43522465#1 204868964 70532481#0 70532481#1 70532481#2 70532481#3 475556767#0 475556767#1 475556768 404156513 120067454 407776776 82113096 404156515 204868970 82464491 6489818#0 6489818#1 263438824 84636740 84636742 84636722#0 84636722#1 444244181 1036389270#0 1036389270#1 444244294#0 444244294#1 444244294#2 731335746 731335745 444244890#0 444244890#1 731533230 444245159 737862064 485945099 444245165 444245161 444245160 444245163 485945093 -84005592#1 -84005592#0 -417726702#1 -417726702#0 417726641#0 417726641#1 417726641#2 417726641#3 15090980 15090987 -84987895 -369735458#1 -369735458#0 -225017990 -159144191 159144190 159144331 198951852 198951854 42806365 12786259 -159051001 -6489835#1 -6489835#0 -6489831 -120316913 -38358186 -120316916 -24299866 -1102403764 1102403762 4548426 202754595 -586826840#4 -586826840#3 -586826840#2 -586826840#1 -586826840#0 4628067 586855880#0 586855880#1 586855862 586855857#0 586855857#1 197572309 586848217 -28776340#5 -28776340#4 -28776340#3 -28776340#2 -28776340#1 -28776340#0 -106787716#1 -106787716#0 -106787719 -4515806#1 -4515806#0 -202753992#2 -202753992#1 -202753992#0 4628071#0 4628071#1 4628071#2 4628071#3 4628071#4 202753993#0 202753993#1 202753993#2 202753993#3 202753993#4 202753993#5 1097150696#0 1097150696#1 1097150695#0 1097150695#1 1097150695#2 156536760#0 156536760#1 156536760#2 1103822695 4839479#0 4839479#1 1103822694 4839480 24324499#0 24324499#1 118222680 92146016 92146012 219273310 16682267 16682270 203405678 152135170 397336690 317578231 60310293 23049213 3469485 40268358 5119375 415336231 415336232 384568461 384568462 384568463 384568464 384568465 384568466 384568467 28041332 3469185 226430697 226430686 162600097 6439669 6439672 3469260 1074436727 315471647 3469268 498384261 34568013 34568016 37679246 4000358 498384262 498384263 498384264 23074960 1113330248 1113330255 22434820 1113330252 1113330247 22434753"/>
    </vehicle>
    <vehicle id="7" depart="7.00">
        <route edges="30880086 143734634 202753588 31255483 229244583#0 229244583#1 30880047 1100617061 143734635#0 143734635#1 202753583#0 202753583#1 202753583#2 250475811#0 250475811#1 250475811#2 250478232#0 250478232#1 8073061 417625399#0 417625399#1 417625399#2 22752434 45494613#0 45494613#1 -895933691 -895933692 -55668652#4 -55668652#3 -55668652#2 -55668652#1 24324524 24324499#1 118222680 92146016 92146012 219273310 16682267 16682270 1051872595 28925592 1051872603 28925593 -203405679 -223996983 -196221563 -26706059 -60099516 -642720473 -223997426 -223997425 -1150582409 -247958714 200039666 196221576 196943255 23471558"/>
    </vehicle>
    <vehicle id="9" depart="9.00">
        <route edges="439078383 439078382 439078384 439078385 484833293 501770280 484833306 98296431 571037599 571037597 452547384 404191020 404191021 489143775 348214166 348214167 490761766 501770278 475274834 490760642 3469487 401487066 23049206 23049207 60310291 476388315 490761483 152135171 203405676 16682265 33891165 219273309 92146017 92146011 3469490 55668649#0 55668649#1 114331018 124452935 478847217 478847216 22821276 4981569 199863045 3469491 45785312#0 45785312#1 45786309#0 45786309#1 45786309#2 383167847 209263579 32405 45360553 45569651 25774328 198642283 4706944#0 4706944#1 4706944#2 -968763923#1 -968763923#0 -968763924 -4696644#2 -4696644#1 -4696644#0 2118 209250806#0 209250806#1 209250806#2 209250806#3 209250806#4 209250806#5 209250806#6 209250806#7 209250806#8 209250806#9 209250806#10 209250806#11 -1103797412 -1103797413 -6182158#4 -6182158#3 -6182158#2 -6182158#1 -6182158#0 180579432#0 180579432#1 180579432#2 199095127#0 199095127#1 144597764#0 144597764#1 144597764#2 144597766#0 144597766#1 974849858 133550892 133550883 199095255#0 199095255#1 199095255#2 199095255#3 257317535 257317534#0 257317534#1 195413312#0 195413312#1 177450943 52044960 52044961#0 52044961#1 52044961#2 52044961#3 52044961#4 180018682 2120 758093924 443458864#0 443458864#1 2107 4211763 201699758 201699757 247958469 25420421 830417644#0 830417644#1 4211764 24808487 6065934 247958470#0 247958470#1 1137655824#0 1137655824#1 1137655823#0 1137655823#1 1137655823#2 239509313#0 239509313#1 6065935 24808290 4233108#0 4233108#1 1090267686 145489116#0 145489116#1 146223206 145489115 123817381 210630494#2 4211755 123817379#0 123817379#1 513402778 4211756 -513402782 -1089708320 -2114 -1095633545 -513402774 -1052260687 -210629893#1 -210629893#0 -4470698 210629891 210629892 210629890 370076349 243599703 108031399 419896890 419896889 108031384 10212662 10212663 1135975606 844045773 844045774 3785957 446428686 446428684 4337420 56752478 911864144 911864145 56752479 917558766 56752480 1099995848 4274360 -4274360 -1099995848 -56752480 -917558766 -56752479 -911864145 -911864144 -56752478 -4337420 -446428684 -446428686 -3785957 -844045774 -844045773 -1135975606 -10212663 -10212662 -108031384 -419896889 -419896890 -108031399"/>
    </vehicle>
    <vehicle id="13" depart="13.00">
        <route edges="-23282846#1 -23282846#0 219244839 443173267#0 443173267#1 500566641 443173266 443173265 216513345 443173263 353650829 125567096 125567099 4372851 116595939 116595904 116595940 116595937 220040259 352297912 1126111685 1126111680 1126111681 7646352 1126700711 122387780 122387768 729756388 729756387 220036904 7646353 2228 875919321 1126031152 1126031153 384423196 955870418 1126052822 43586856 875919320 186229774#0 186229774#1 1100851856 1100851855 347369700 1100851865 1100851864 5855742 1100851863 1125902633 447028605 447028607 5855735 -447038556 447038557 447038554 75038138 673406338 1130650476 673406342 5855732 -75038231#1 -75038231#0 75038233 75038179 673406334 673406332 75038229 -75038237 75038241 673406321 673406322 75038238 75038244 -5886872#2 -5886872#1 -5886872#0 441036788 1125902639 4264443#0 4264443#1 673846205 75037944 75037931#0 75037931#1 75037931#2 75037931#3 75037931#4 1006842351#0 1006842351#1 191613307 191613308#0 191613308#1 191613308#2 191613308#3 1006842358 122229449#0 122229449#1 4433100#0 4433100#1 4433100#2 1005669597 666988593#0 666988593#1 1005669598 664706656 4433103#0 4433103#1 4433103#2 309734211#0 309734211#1 673844579#0 673844579#1 664706652#0 664706652#1 74864054#0 74864054#1 74864054#2 -32677572 -202354849#1 -202354849#0 -202354850 -1033995509#1 -1033995509#0 -114430344#1 -114430344#0 -114430345#2 -114430345#1 -114430345#0 -115967750#1 -115967750#0 -115967749 -935124737 -239352718 -95805202 -35893235 -35893237 -95805198#1 -95805198#0 -839513328 -94707499 -673145277 -35893513 -35893239#2 -35893239#1 -35893239#0 -94707503 -1080506888 -1080506887 -74861587 74861563 1101191121 673898997 1101191120 4887535 4887536 -1101191125 -95099946 -95099947 -290995925 -918465197 -1128312309 -918465196 -1128312308 -970646928 -970646929 -236387093"/>
    </vehicle>
    <vehicle id="14" depart="14.00">
        <route edges="470165452 -206555976 33171896 470297978 470298288 470298287 470298284 470298283 470297977 470165148 470165147 470165146 470165145 419038970 419038971 546684056 108833686 108833703 287277870 287277905 287277884 287277865 -287277865 -287277884 -287277905 -287277870 -108833703 -108833686 -546684056 -419038971 -419038970 -470165145 -470165146 -470165147 -470165148 -470297977 -470298283 -470298284 -470298287 -470298288 -470297978 -33171896 206555976 -470165452 -470165453 -24409079 -470165560 -470165561 -24409078 -470167488 -470167490 -33240539 -217345297 -217345293 -217345295 -217345291 -3996601 -33240542 -1106462617 -216127554 -216127546 -287277844 -1149953601 -287277851 -434529427 -434529424 -3789216 -39346143 -39346144 -1149961736 -3808549 4824369 -287271019 -25226183 -1149961740 -1149961739 -1149961738 -1149961737 -25226191 -216127556 -4824368 4824363 3808548#1 4824365 -216127549 -739774547 -957924925 -957924924 -216127548 -24052988 -1100195429 24052989 3808545#0 3808546 216127557 44068371 44068372 30983384 30983383 24052982 24052983 33240915 23885012#0 23885013#0 23885013#1 3808543#1 1089710494 3808542 538344042 538344041 538343016 538343017#0 538343017#1 1095951862 1095951861 2099#0 2099#1 2099#2 33240919 2097#0 3664645 1103737480 1103737479 1103738754 1103738753 1103738752 1103737478 1027130043 1103741137 1103741136 1103741135 848250706 971241958 971241959 3759105 4416261 4416262 3758958 216151929 216151923 4233218 28071369 1078937863 1027020385 3654807 3654806 117219290 117219275 39888849 39888847 772921248 772921247 26961464 26961462 27172304 106797790 379589868 431351130 45050989 431351126 143885166 133081905 431351544 106797785 106797780 386194381 386194383 386194385 162006130 27109881 123103651 27109882 45773883 45591878 45591879 10262439 975680787 10262442 45773620 200051860 119028145 386959075 386959076 1074240853 1735 205818337 22731427 163763584 4287401 4784924 129627171 380554727 69067201 736368181 4798872 69067218 4763830 4345001 4345002#0 4345002#1 3469493 579403732 579403734 4470835 1801 1126700706 124452933 24324609 45494754 114331028 118222680 92146016 92146012 219273310 16682267 16682270 203405678 152135170 397336690 317578231 60310293 23049213 3469485 40268358 5119375 415336231 415336232 384568461 384568462 384568463 384568464 384568465 384568466 384568467 28041332 3469185 226430697 226430686 162600097 6439669 6439672 3469260 1074436727 315471647 3469268 498384261 34568013 34568016 37679246 4000358 498384262 498384263 498384264 23074960 1113330248 1113330255 22434820 1113330252 1113330247 22434753 498384266 22778508 22778497 384761587 44508327 26749999 26749997 44507825 44507789 22983491 22983490 22983483 384761585 384761586 22983482 22778421 384753097 22778423 4000360 24615947 22778392 4000368 30279249 30279248 50515899 50515905 34620997 34620998 22922772 22922773 43843962 43843963 4000372 22927497 22927496 22927010 22927008 22927017 22927016 4000370 4000346 22973284 22947028 22947019 4953357 4000343 22944183 45558818 45558604 22927512 22927511 22927508 22927507 4000338 4000330 4000326 194344455 194344457 194344460 194344461 108356493 108356494 153755777 153755778 4000322 383138011 383138010 131594114 207235814 153529873 153529874 4000316 262192321 262192326 241288483 241288471 43841771 43841781 153480946 153480948 44890315 25765858 70172328 4000258 712240241 712240242 25765715 25765716 152252343 26260658 26259807 206426057 26259945"/>
    </vehicle>
    <vehicle id="15" depart="15.00">