<?xml version="1.0" encoding="UTF-8"?>

<!-- generated on 2023-03-08 13:31:53.061865 by randomTrips.py v1_16_0+0000-94ec4c6cd72
<configuration>
    <end value="1000"/>
    <length value="True"/>
    <net-file value="test.net.xml"/>
    <route-file value="map.rou.xml"/>
    <validate value="True"/>
</configuration>
-->

<!-- generated on 2023-03-08 13:31:52 by Eclipse SUMO duarouter Version 1.16.0
<configuration xmlns:xsi="http://www.w3.org/2001/XMLSchema-instance" xsi:noNamespaceSchemaLocation="http://sumo.dlr.de/xsd/duarouterConfiguration.xsd">

    <input>
        <net-file value="test.net.xml"/>
        <route-files value="trips.trips.xml"/>
    </input>

    <output>
        <output-file value="map.rou.xml"/>
        <alternatives-output value="NUL"/>
    </output>

    <time>
        <begin value="0"/>
        <end value="1000"/>
    </time>

    <report>
        <no-warnings value="true"/>
        <ignore-errors value="true"/>
        <no-step-log value="true"/>
    </report>

</configuration>
-->

<routes xmlns:xsi="http://www.w3.org/2001/XMLSchema-instance" xsi:noNamespaceSchemaLocation="http://sumo.dlr.de/xsd/routes_file.xsd">
    <vehicle id="0" depart="0.00">
        <route edges="4548200 45073977#0 45073977#1 -4494912#4 -4494912#3 -4494912#2 -4494912#1 58169415 -417415067 -4787455#1 -4787455#0 -198969727#1 -198969727#0 -4683299 143769308#0 143769308#1 204790848 4953268#0 4953268#1 4953268#2 4764294#0 4764294#1 4764294#2 45886022 143769305 45051066 221119203#0 221119203#1 221119203#2 221119202#0 221119202#1 4798846#0 4798846#1 4798846#2 257885010#0 257885010#1 257885010#2 226151434 32565783#0 32565783#1 257885011 380556683#0 380556683#1 380556683#2 429651445#0 429651445#1 429651445#2 429651445#3 22885877#0 22885877#1 -16282110#4"/>
    </vehicle>
    <vehicle id="2" depart="2.00">
        <route edges="4750188#1 -4798846#0 4644889#0 4644889#1 4644889#2 4644889#3 198044386#0 198044386#1 46549966#0"/>
    </vehicle>
    <vehicle id="3" depart="3.00">
        <route edges="595322007 69067227 4876190#0 4876190#1 4876190#2 4876190#3 4876189 1058909732 4296031#0 4296031#1 4296031#2 4296031#3 4296031#4 4296031#5 4296031#6 4296031#7 4296031#8 4296031#9 4296031#10 69067200 736368261 736368260 4764303#5 226151792 4764306 1117207664 237046751#0 237046751#1 237046751#2 4745018#0 4745018#1 4745018#2 4744977#2 4744977#3 4744977#4 382336252 382336253#0 4745019#3 4745019#4 4745019#5 4745019#6 4745019#7 4745019#8 -384186891#1"/>
    </vehicle>
    <vehicle id="4" depart="4.00">
        <route edges="221119203#0 221119203#1 221119203#2 221119202#0 221119202#1 4798846#0 4798846#1 4798846#2 257885010#0 257885010#1 257885010#2 226151434 32565783#0 4296031#8 4296031#9 4296031#10 69067200 736368261 736368260 4296033 93230126#0 93230126#1 144176631#0 144176631#1 93230129 4764318#0 4764318#1 4764318#2 4764318#3 19080750#0 19080750#1 19080750#2 -19080750#2"/>
    </vehicle>
    <vehicle id="5" depart="5.00">
        <route edges="-5299005#0 45074078#0 45074078#1 144176629 9395410#0 151952407 735349188 735349186 380808600#0 380808600#1 995103496 588506827 389802135#0 389802135#1 389802134#0 389802134#1 389802134#2 389802134#3 389802134#4 4642304#0 4642304#1 4642304#2 4642304#3 721037390 4642302#0 4642302#1 4642302#2 4642302#3 201700816 26403933#0 26403933#1 26403933#2 45073934 26403934#0 26403934#1 26403934#2 26403934#3 143769307#0 143769307#1 45049554#0 45049554#1 45051074#0 45051074#1 144176630#0 144176630#1 144176630#2 144176630#3 144176630#4 45886019#0 45886019#1 430737809#0 430737809#1 430737809#2 384169639 384169638 4574013 4745048 384186894#0 384186893#1 384186897 384186900 430737811 384186903"/>
    </vehicle>
    <vehicle id="6" depart="6.00">
        <route edges="-16282110#6 -16282110#5 -22885877#1 -22885877#0 -429651445#3 -429651445#2 -429651445#1 -429651445#0 -380556683#2 -380556683#1 -380556683#0 -257885011 262604454#0 4296031#9 4296031#10 69067200 736368261 736368260 4764303#5 226151792 4764306 1117207664 237046751#0 237046751#1 237046751#2 4745018#0 4745018#1 4745018#2 4744977#2 4744977#3 4744977#4 382336252 382336253#0 382336253#1 382336253#2 5003551#0 5003551#1 198642282 4717559#0 4717559#1 4717559#2 45886019#0 45886019#1 781156026 1047548239#0 1047548239#1 164500951 45359295#0 45359295#1 45359295#2 45359713 45359292#0 -4904139#2 -4904139#1 -4904145"/>
    </vehicle>
    <vehicle id="7" depart="7.00">
        <route edges="45886019#1 430737809#0 430737809#1 430737809#2 4745054 45359294#0 45359294#1 4744975#0 4744975#1 4744975#2 4744975#3 4744975#4 4744975#5 226578078#4 226578078#5 226578078#6 226578078#7 361218133 4644897#0 4644897#1 417316667#4 417316667#5 417316667#6 417316667#7 1046745409#0 1046745409#1 1046745409#2 1046745409#3 1046745409#4 1046745409#5 226151793 17980412 235044113#0 235044113#1 19230513#2 19230513#3 28072796#2 28072796#3 28072796#4 28072796#5 4296031#10"/>
    </vehicle>
    <vehicle id="8" depart="8.00">
        <route edges="-581608796#1 -581608796#0 581608795 581609404#0 581609404#1 581609404#2 581609404#3 581609404#4 581609404#5 581609404#6 581609404#7 26403934#0 26403934#1 26403934#2 26403934#3 143769307#0 143769307#1 45049553 203403883#0 203403883#1 143769303 4483892#0 4483892#1 4483892#2 381215016 4483893#0 4483893#1 4483893#2 4483893#3 4483893#4 45051085 4397805 4521153#0 4521153#1 4521153#2 20448023 990894174 -4745074 -1089452022#5 -1089452022#4 4677319#0 4677319#1 4677319#2 4677319#3 4677319#4 4677320#0 4677320#1 4638062#4 37943342#0 37943342#1 595650582 983637050#0 983637050#1 983637050#2 8119016#0 8119016#1 4494926#0 4494926#1 4494926#2 4494926#3 4494926#4"/>
    </vehicle>
    <vehicle id="9" depart="9.00">
        <route edges="4839478#1 96646975#0 96646975#1 96646975#2 -96646975#2 -96646975#1 -96646975#0 -4839478#1 -4839478#0 164500952 -196934179#12 -196934179#11 -196934179#10 -196934179#9 -196934179#8 -196934179#7 -196934179#6 -196934179#5 -20448005#6 -20448005#5 4778498#0 4778498#1 4778498#2 4745073#0 4745073#1 4745073#2 4745073#3 4745073#4 -1088915060#1 -1088915060#0"/>
    </vehicle>
    <vehicle id="10" depart="10.00">
        <route edges="4839473#0 4839473#1 4839473#2 -20279755#2 -20279755#1 -20279755#0 -732295445#2 -732295445#1 -732295445#0 -26303872 -20279746#3 -20279746#2 -20279746#1 -20279746#0 -210429351#1 -210429351#0 -384212608#3 -384212608#2 -384212608#1 -384212608#0 198642284#0 198642284#1 198642284#2 198642284#3 43847349#0 43847349#1 43847349#2 1136445715 1136445706#0 1136445706#1 209263690#0 209263690#1 209263690#2 209263690#3 417313760#0 42796907#0 42796907#1 45051073#0 45051073#1 198044382#0 198044382#1 198044382#2 198044382#3 42796910#0 42796910#1 42796910#2 42796910#3 42796910#4 4497326#0 4497326#1 4497326#2 4567177 527034495 144176629 4548443#0 4548443#1 380618972 -730447301#1 -730447301#0 4862551#0 4991161#1 4717618#1"/>
    </vehicle>
    <vehicle id="11" depart="11.00">
        <route edges="16282110#5 16282110#6 -16282110#6 -16282110#5 -22885877#1 -22885877#0 -429651445#3 -429651445#2 -429651445#1 -429651445#0 116050662#0 116050662#1 4717459#0 4717459#1 -4717459#1"/>
    </vehicle>
    <vehicle id="12" depart="12.00">
        <route edges="8751893#0 8751893#1 203955671#0 203955671#1 90682376 205819136 201700815 1003917173 4642302#0 4642302#1 4642302#2 4642302#3 201700816 26403933#0 26403933#1 26403933#2 45073934 26403934#0 26403934#1 26403934#2 26403934#3 143769307#0 143769307#1 45049554#0 45049554#1 45051074#0 45051074#1 144176630#0 144176630#1 144176630#2 144176630#3 144176630#4 45886019#0 45886019#1 781156026 1047548239#0 1047548239#1 164500951 1136445712#0 1136445712#1 1136445712#2 1136445714 219273311#0 219273311#1 219273311#2 219273311#3 219273311#4 384212608#0 384212608#1 384212608#2 384212608#3 210429351#0 210429351#1 -4839472#1 -4839472#0 20279759#0 20279759#1 20279759#2 20279759#3 20279759#4 45073629#0 45073629#1 45073629#2 45073629#3 45073629#4 45073629#5 45073629#6 -96646975#2 -96646975#1 -96646975#0 -4839478#1 -4839478#0 164500952"/>
    </vehicle>
    <vehicle id="13" depart="13.00">
        <route edges="-384186891#3 -384186891#2 -384186891#1 -384186891#0 384185250#0 384185250#1 384185250#2 384186893#0 384186893#1 384186897 384186900 430737811 430737812 4745054 45359294#0 45359294#1 4744975#0 4744975#1 4744975#2 4744975#3 4744975#4 4744975#5 226578078#4 226578078#5 226578078#6 226578078#7 361218133 4644897#0 4644897#1 417316667#4 417316667#5 417316667#6 417316667#7 1046745409#0 1046745409#1 1046745409#2 1046745409#3 1046745409#4 1046745409#5 226151793 17980412 235044113#0 235044113#1 235044113#2 -122719539#3 -122719539#2 -122719539#1 -122719539#0 -122719529#1 256336250 -4717457#3 -4717457#2 -4717457#1 -4717457#0 19797681#1 433028097#2 433028097#3 -433028097#3 -433028097#2"/>
    </vehicle>
    <vehicle id="14" depart="14.00">
        <route edges="4904145 4904139#1 4904139#2 1136445708#0 1136445708#1 1136445719#0 1136445719#1 1136445719#2 1136445713 1136445717#0 1136445717#1 1136445715 1136445706#0 1136445706#1 209263690#0 209263690#1 209263690#2 209263690#3 417313760#0 42796907#0 42796907#1 45051073#0"/>
    </vehicle>
    <vehicle id="15" depart="15.00">
        <route edges="4839473#3 4839473#4 45073628#0 45073628#1 45073628#2 45073628#3 45073628#4 45073628#5 45073628#6 4839472#0 4839472#1 -210429351#1 -210429351#0 -384212608#3 -384212608#2 -384212608#1 -384212608#0 198642284#0 198642284#1 198642284#2 198642284#3 43847349#0 43847349#1 43847349#2 1136445715 1136445706#0 1136445706#1 209263690#0 209263690#1 209263690#2 209263690#3 417313760#0 417313760#1 417316667#0 417316667#1 417316667#2 417316667#3 417316667#4 417316667#5 417316667#6 417316667#7 1046745409#0 1046745409#1 1046745409#2 1046745409#3 1046745409#4 1046745409#5 226151793 17980412 69067200 736368261 736368260 4296033 93230126#0 93230126#1 144176631#0 144176631#1 93230129 4764318#0 4764318#1 4764318#2 4764318#3 19080750#0 19080750#1 4866001#0 4866001#1 19785406 19081187 4745138"/>
    </vehicle>
    <vehicle id="16" depart="16.00">
        <route edges="417316667#6 417316667#7 1046745409#0 1046745409#1 1046745409#2 1046745409#3 380098110#0 380098110#1 69067217#1 69067217#2 69067217#3 69067217#4 69067217#5 69067217#6 69067217#7 69067217#8 4764309#0 4764309#1 4764309#2 102058907 226286791 595322007 69067227 4876190#0 93256779#0 93256779#1"/>
    </vehicle>
    <vehicle id="17" depart="17.00">
        <route edges="20279746#3 26303872 -26303872 -20279746#3 -20279746#2 -20279746#1 -20279746#0 -210429351#1 -210429351#0 -384212608#3 -384212608#2 -384212608#1 -384212608#0 198642284#0 198642284#1 198642284#2 198642284#3 43847349#0 43847349#1 43847349#2 1136445715 1136445706#0 1136445706#1 209263690#0 209263690#1 209263690#2 209263690#3 417313760#0 417313760#1 417316667#0 417316667#1 417316667#2 417316667#3 417316667#4 417316667#5 417316667#6 417316667#7 1046745409#0 1046745409#1 1046745409#2 1046745409#3 1046745409#4 1046745409#5 226151793 17980412 235044113#0 235044113#1 235044113#2 -122719539#3 -122719539#2 -122719539#1 -122719539#0 -122719529#1 -122719529#0 -116050662#1 -116050662#0 429651445#0 429651445#1 429651445#2"/>
    </vehicle>
    <vehicle id="18" depart="18.00">
        <route edges="4869273#1 4869273#2 4869273#3 4627828 8751900#0 8751900#1 8751900#2 8751900#3 131860123#0 131860123#1 203955671#0 203955671#1 90682376 205819136 201700815 1003917173 4642302#0 4642302#1 4642302#2 4642302#3 201700816 26403933#0 26403933#1 26403933#2 4476790#0 4476790#1 45885961 45885962 13444210#0 13444210#1 13444210#2 13444212#0 13444212#1 13444212#2 -143769306#4 -143769306#3 -143769306#2 -143769306#1 -143769306#0 143769303 4483892#0 4483892#1 4483892#2 381215016 4483893#0 4483893#1 4483893#2 4483893#3 4483893#4 45051085 4397805 4521153#0 4521153#1 4521153#2"/>
    </vehicle>
    <vehicle id="19" depart="19.00">
        <route edges="5171322#1 5171322#2 5171322#3 112804960#0 112804960#1 389802134#0 389802134#1 389802134#2 389802134#3 389802134#4 151952408 735349187 735349189 4548443#0 4548443#1 380618972 -730447301#1 -730447301#0 4862551#0 4862551#1 4862551#2 4717600#0 4717600#1 4717600#2 116370208 26410600#1 4717602#0 4717602#1 4717602#2 4717602#3 197572274 -197572274 -958054763 -206317572 -99798486 4494912#0 4494912#1 4494912#2 4494912#3 4494912#4 4494912#5 37943342#0 37943342#1 4741291#1 4494913#0 4494913#1 4494913#2"/>
    </vehicle>
    <vehicle id="20" depart="20.00">
        <route edges="4744975#1 4745047#0 4745047#1 4745047#2 4745047#3 4745047#4 384169517 384186893#0 384186893#1 384186897 384186900 430737811 384186903 1047548239#0 1047548239#1 164500951 1136445712#0 1136445712#1 1136445712#2 1136445714 219273311#0 219273311#1 219273311#2 219273311#3 219273311#4 384212608#0 384212608#1 384212608#2 384212608#3 210429351#0 210429351#1 -4839472#1 -4839472#0 20279759#0 20279759#1 20279759#2 -20279759#2 -20279759#1 -20279759#0"/>
    </vehicle>
    <vehicle id="21" depart="21.00">
        <route edges="-730447301#0 730447301#0 730447301#1 380618973#0 380618973#1 151952407 735349188 735349186 380808600#0 380808600#1 995103496 588506827 389802135#0 389802135#1 389802134#0 389802134#1 389802134#2 389802134#3 389802134#4 4642304#0 4642304#1 4642304#2 4642304#3 721037390 4642302#0 4642302#1 4642302#2 4642302#3 201700816 26403933#0 26403933#1 26403933#2 45073934 26403934#0 26403934#1 26403934#2 26403934#3 143769307#0 143769307#1 45049554#0 45049554#1 45051074#0 45051074#1 144176630#0 144176630#1 144176630#2 144176630#3 144176630#4 45886019#0 45886019#1 781156026 1047548239#0 1047548239#1 164500951 45359295#0 45359295#1 45359295#2 45359713 45359292#0 1136445708#0"/>
    </vehicle>
    <vehicle id="22" depart="22.00">
        <route edges="-26303872 -20279746#3 -20279746#2 -20279746#1 -20279746#0 -210429351#1 -210429351#0 -45051111#2 -45051111#1 -45051111#0 28380058#0 28380058#1 28380058#2 185136473 185136472 45074530 4497320 4397805 4521153#0 4521153#1 4521153#2 20448023 990894174 -4745074 -1089452022#5 -1089452022#4 4677319#0 4677319#1 4677319#2 4677319#3 4677319#4 4677320#0 4677320#1 58648676#0 58648676#1 58648676#2 -4494913#2 -4494913#1 -4494913#0 595233510 4741290 4741293 -83607382#3"/>
    </vehicle>
    <vehicle id="23" depart="23.00">
        <route edges="-433028097#1 -433028097#0 433028097#0 433028097#1 -19797681#1 4717457#0 4717457#1 22293436 -429651445#2 -429651445#1 -429651445#0 -380556683#2 -380556683#1 -380556683#0 -257885011 262604454#0 4296031#9 4296031#10 69067200 736368261 736368260 4764303#5 226151792 4764306 1117207664 237046751#0 237046751#1 237046751#2 4745018#0 4745018#1 4745018#2 4744977#2 4744977#3 4744977#4 382336252 382336253#0 382336253#1 382336253#2 5003551#0 5003551#1 198642282 4717559#0 4717559#1 4717559#2 45886019#0 45886019#1 781156026 1047548239#0 1047548239#1 164500951 45359295#0 45359295#1 45359295#2 45359713 1047548237 -1047548238#1 -1047548238#0 1047548238#0"/>
    </vehicle>
    <vehicle id="24" depart="24.00">
        <route edges="45359877#11 45359877#12 -45359877#12 -45359877#11 -45359877#10 -45359877#9 -45359877#8 -45359877#7 -45359877#6 -45359877#5 -45359877#4 -45359877#3 -45359877#2 -45359877#1 -45359877#0 -96646975#2 -96646975#1 -96646975#0 -4839478#1 -4839478#0 164500952 -196934179#12 -196934179#11 -196934179#10 -196934179#9 -196934179#8 -196934179#7 -196934179#6 -196934179#5 -20448005#6 -20448005#5 -20448005#4 -20448005#3 -20448005#2 -20448005#1 -20448005#0 20448023 990894174 -4745074 -198044378#4 -198044378#3 -198044378#2 -198044378#1 -198044378#0 198044378#0 198044378#1 198044378#2"/>
    </vehicle>
    <vehicle id="25" depart="25.00">
        <route edges="198044382#3 45886022 143769305 45051066 221119203#0 221119203#1 221119203#2 221119202#0 221119202#1 -581608796#1"/>
    </vehicle>
    <vehicle id="26" depart="26.00">
        <route edges="-9666386#0 9666386#0 9666386#1 9666386#2 9666386#3 -26404121#0 -973334483#1 -973334483#0 -995103498#1 -995103498#0 -25566799#1 -25566799#0 -990822936#2 -990822936#1 -990822936#0 4876190#0 4876190#1 4876190#2 4876190#3 4876189 1058909732 4627828 8751900#0 8751900#1 8751900#2 8751900#3 -77647202#1 -77647202#0 77647202#0 77647202#1"/>
    </vehicle>
    <vehicle id="27" depart="27.00">
        <route edges="45885961 45885962 13444210#0 13444210#1 13444210#2 13444212#0 13444212#1 13444212#2 -143769306#4 -143769306#3 -143769306#2 -143769306#1 -143769306#0 -143769304#1 -143769304#0 -4483920#1 -4483920#0 -209263690#3 -209263690#2 -209263690#1 -209263690#0 -1136445706#1 -1136445706#0 4827884#0 4827884#1 4827884#2 1136445711 1136445714 219273311#0 219273311#1 219273311#2 219273311#3 219273311#4 384212608#0 384212608#1 384212608#2 384212608#3 210429351#0 210429351#1 -4839472#1 -4839472#0 20279759#0 20279759#1 20279759#2 20279759#3 20279759#4 45073629#0"/>
    </vehicle>
    <vehicle id="29" depart="29.00">
        <route edges="-4717459#4 -4717459#3 -4717459#2 19797475 28072796#1 28072796#2 28072796#3 28072796#4 28072796#5 4296031#10 69067200 736368261 736368260 4764303#5 226151792 4764306 1117207664 237046751#0 237046751#1 237046751#2 4745018#0 4745018#1 4745018#2 4744977#2 4744977#3 4744977#4 382336252 382336253#0 382336253#1 382336253#2 5003551#0 5003551#1 198642282 4717559#0 4717559#1 4717559#2 45886019#0 45886019#1 781156026 1047548239#0 1047548239#1 164500951 1136445712#0 1136445712#1 1136445712#2 1136445714 219273311#0 219273311#1 219273311#2 219273311#3 219273311#4 384212608#0 384212608#1 384212608#2 384212608#3 210429351#0 210429351#1 20279746#0 20279746#1 20279770#0 20279770#1 20279770#2 20279770#3 -45073628#3 -45073628#2 -45073628#1 -45073628#0 20279756#0 20279756#1"/>
    </vehicle>
    <vehicle id="30" depart="30.00">
        <route edges="9702627 9702628 -9702626#2 -9702626#1 -93256779#3 -93256779#2 9702630#0 9702630#1 4876190#2 4876190#3 4876189 1058909732 4627828 8751900#0 8751900#1 8751900#2 8751900#3 131860123#0 131860123#1 203955671#0 203955671#1 90682376 205819136 201700815 1003917173 4642302#0 4642302#1 4642302#2 4642302#3 201700816 26403933#0 26403933#1 26403933#2 4476790#0 4476790#1 45885961 45885962 4497326#0 4497326#1 4497326#2 4567177"/>
    </vehicle>
    <vehicle id="31" depart="31.00">
        <route edges="4296031#4 4296031#5 4296031#6 4296031#7 4296031#8 262604454#1 257885007 257885008#0 257885008#1 257885008#2 -4798846#2 -4798846#1 -4798846#0 4644889#0 4644889#1 4644889#2 4644889#3 198044386#0 198044386#1 46549966#0 46549966#1 46549966#2 4573820#0 4573820#1 221112638 45049553 203403883#0 203403883#1 143769303 4483892#0 4483892#1 4483892#2 381215016 4483893#0 4483893#1 4483893#2 4483893#3 4483893#4 45051085 4397805 4521153#0 4521153#1 4521153#2 20448023 990894174 4683301#0"/>
    </vehicle>
    <vehicle id="32" depart="32.00">
        <route edges="4904139#1 4904139#2 1136445708#0 1136445708#1 1136445719#0 1136445719#1 1136445719#2 219273311#0 219273311#1 219273311#2 219273311#3 219273311#4 384212608#0 384212608#1 384212608#2 384212608#3 -45051111#2 -45051111#1 -45051111#0 28380058#0 28380058#1 28380058#2 185136473 185136472 45074530 4497320 4397805 4521153#0 4521153#1 4521153#2 20448023 990894174 -4745074 -198044378#4 -198044378#3 -198044378#2 -198044378#1 -198044378#0 4787455#0 4787455#1"/>
    </vehicle>
    <vehicle id="33" depart="33.00">
        <route edges="-732295445#1 -732295445#0 -26303872 -20279746#3 -20279746#2 -20279746#1 -20279746#0 -210429351#1 -210429351#0 -45051111#2 -45051111#1 -45051111#0 28380058#0 28380058#1 28380058#2 4628076 196934179#0 196934179#1 196934179#2 196934179#3 196934179#4 196934179#5 196934179#6 196934179#7 196934179#8 196934179#9 196934179#10 196934179#11 196934179#12 -196934179#12 -196934179#11 -196934179#10"/>
    </vehicle>
    <vehicle id="34" depart="34.00">
        <route edges="125068105 -125068105 721037390 -1003917173 -201700815 -205819136 -90682376 -203955671#1 -203955671#0 -131860123#1 -131860123#0 41863459#0 41863459#1 41863459#2 491303420 595322007 69067227 990822936#0 990822936#1 990822936#2 25566799#0 25566799#1 995103498#0 995103498#1 973334483#0 973334483#1 26404121#0 26404121#1 -9702644#5 -9702644#4 -9702644#3 -9702644#2 -9702644#1 -9702644#0"/>
    </vehicle>
    <vehicle id="35" depart="35.00">
        <route edges="-4904140#1 -4904139#3 1136445708#0 1136445708#1 1136445719#0 1136445719#1 1136445719#2 219273311#0 219273311#1 219273311#2 219273311#3 219273311#4 384212608#0 384212608#1 384212608#2 384212608#3 -45051111#2 -45051111#1 -45051111#0 28380058#0 28380058#1 28380058#2 185136473 185136472 45074530 4497320 4397805 4521153#0 4521153#1 4521153#2 20448023 990894174 -4745074 -1089452022#5 -1089452022#4 4677319#0 4677319#1 4677319#2 4677319#3 4677319#4 4677320#0 4677320#1 4638062#4 37943342#0 37943342#1 595650582 983637050#0 983637050#1 983637050#2 8119016#0"/>
    </vehicle>
    <vehicle id="36" depart="36.00">
        <route edges="5363042#1 4865998#3 4865998#4 5363043 -17980414#0 17980415#0 17980415#1 -122719539#3 -122719539#2 -122719539#1 -122719539#0 -122719529#1 -122719529#0 -116050662#1 -116050662#0 -380556683#2 -380556683#1 -380556683#0 -257885011 262604454#0 262604454#1 257885007 257885008#0 69067217#4 69067217#5 69067217#6 48610086 -48610084#2 -48610084#1 -48610084#0 -121017977 -121017976 -8746407#1 -8746407#0 -8746405#0 8746406#0 8746406#1 412176638 581609404#0 581609404#1 581609404#2 581609404#3 581609404#4 581609404#5 581609404#6 581609404#7 26403934#0 26403934#1 26403934#2 26403934#3 143769305"/>
    </vehicle>
    <vehicle id="37" depart="37.00">
        <route edges="4627829#1 4483920#0 4483920#1 143769304#0 143769304#1 143769303 4483892#0 4483892#1 4483892#2 381215016 4483893#0 4483893#1 4483893#2 4483893#3 4483893#4 45051085 4397805 4521153#0 4521153#1 4521153#2 1088915061 4981556#0 4981556#1 4981556#2 4981556#3 4981556#4 -1089452022#1 -1089452022#0 4745075#0 4745075#1 4745075#2 20466087"/>
    </vehicle>
    <vehicle id="38" depart="38.00">
        <route edges="732295445#0 732295445#1 732295445#2 -732295445#2 -732295445#1 -732295445#0 -26303872 -20279746#3 -20279746#2 -20279746#1 -20279746#0 -210429351#1 -210429351#0 -384212608#3 -384212608#2 -384212608#1 -384212608#0 198642284#0 198642284#1 198642284#2 198642284#3 43847349#0 43847349#1 43847349#2 1136445715 1136445706#0 1136445706#1 209263690#0 209263690#1 209263690#2 209263690#3 417313760#0 417313760#1 417316667#0 417316667#1 417316667#2 417316667#3 417316667#4 417316667#5 4644890#2 4644890#3 4644888#0 4644888#1 4644888#2 4750191#1 4750188#0 4750188#1 4798846#1 4798846#2 257885010#0"/>
    </vehicle>
    <vehicle id="39" depart="39.00">
        <route edges="-9665293#2 -9665293#1 -9665293#0 9665293#0 9665293#1 9665293#2 9665293#3 9665293#4 9665293#5 9665293#6 9665293#7 -995103498#1 -995103498#0 -25566799#1 -25566799#0 -990822936#2 -990822936#1 -990822936#0 -69067227 -389802951#2 -389802951#1 -389802951#0 -203957021#3 -203957021#2 -203957021#1 -203957021#0 -389802137 152827342 112804960#0 112804960#1 389802135#2 389802135#3 389802135#4 389802135#5 389802135#6 -90682376"/>
    </vehicle>
    <vehicle id="40" depart="40.00">
        <route edges="429651445#1 -429651445#1 -429651445#0 -380556683#2 -380556683#1 -380556683#0 -257885011 262604454#0 262604454#1 257885007 257885008#0 69067217#4 69067217#5 69067217#6 69067217#7 69067217#8 4764309#0 4764309#1 4764309#2 102058907 226286791 595322007 69067227 990822936#0 990822936#1 990822936#2 9702627 9702628 -9702626#2 -9702626#1"/>
    </vehicle>
    <vehicle id="41" depart="41.00">
        <route edges="4494912#3 4494912#4 4494912#5 37943342#0 37943342#1 4741291#1 4494913#0 4494913#1 4494913#2 4494913#3 4494913#4 4494913#5 4494913#6 4494913#7 4494913#8 4494913#9 4494913#10 4494913#11 4494913#12 685023881"/>
    </vehicle>
    <vehicle id="42" depart="42.00">
        <route edges="20466088 1105467584 1089452021#1 -4521152#0 -1088915060#1 -1088915060#0 -1088915061 20448023 990894174 4683301#0 4683301#1 4683301#2 4683301#3 4683301#4 143769308#0 143769308#1 204790848 4953268#0 4953268#1 4953268#2 4764294#0 4764294#1 4764294#2 45886022 143769305 45051066 221119203#0 221119203#1 221119203#2 221119202#0 221119202#1 4798846#0 4798846#1 4798846#2 257885010#0 257885010#1 257885010#2 226151434 32565783#0 32565783#1 257885011 380556683#0 380556683#1 380556683#2 429651445#0 429651445#1 429651445#2 429651445#3 22885877#0 22885877#1 -16282110#4 -16282110#3 -16282110#2 -16282110#1 -16282110#0 -969769502 -139718604#6 -139718604#5 -139718604#4 -139718604#3 -139718604#2 -77647181"/>
    </vehicle>
    <vehicle id="43" depart="43.00">
        <route edges="983637050#2 4677446#0 4677446#1 -172206441 -58648676#7 -58648676#6 -58648676#5 -58648676#4 -58648676#3 -4494913#2 -4494913#1 -4494913#0 595233510 4741290 162901771#1 12682521 -4494912#5 -4494912#4 -4494912#3 -4494912#2 -4494912#1 -4494912#0 99798486 206317572 958054763 197572274 -197572274 -4717602#3 -4717602#2 -4717602#1 -4717602#0 4717601 4627913#0 4627913#1 4627913#2 45074078#0 45074078#1 144176629 9395410#0 151952407 735349188 735349186 380808600#0 380808600#1 995103496 588506827 389802135#0 389802135#1 389802134#0 389802134#1 389802134#2 389802134#3"/>
    </vehicle>
    <vehicle id="44" depart="44.00">
        <route edges="-384186891#0 384185250#0 384185250#1 384185250#2 384186893#0 384186893#1 384186897 384186900 430737811 384186903 1047548239#0 1047548239#1 164500951 1136445712#0 1136445712#1 1136445712#2 1136445714 219273311#0 219273311#1 219273311#2 219273311#3 219273311#4 384212608#0 384212608#1 384212608#2 384212608#3 210429351#0 210429351#1 -4839472#1 -4839472#0 20279759#0 20279759#1 20279759#2 20279759#3 20279759#4 45073629#0 -45073629#0 -20279759#4 -20279759#3"/>
    </vehicle>
    <vehicle id="45" depart="45.00">
        <route edges="-4475215#3 -4475215#2 -4475215#1 -4475215#0 -4521152#2 -4521152#1 -4521152#0 -4745073#4 -4745073#3 -4745073#2 -4745073#1 -4745073#0 -4778498#2 -4778498#1 -4778498#0 20448005#5 20448005#6 -196934179#4 -196934179#3 -196934179#2 -196934179#1 -196934179#0 -4628076 -28380058#2 -28380058#1 -28380058#0 45051111#0 45051111#1 45051111#2 -384212608#3 -384212608#2 -384212608#1 -384212608#0 198642284#0 198642284#1 198642284#2 198642284#3 1136445716#0 1136445716#1 1136445716#2 1136445718 1136445711 1136445707#0 1136445707#1 45359713 45359292#0 45359292#1"/>
    </vehicle>
    <vehicle id="47" depart="47.00">
        <route edges="-209263690#2 -209263690#1 -209263690#0 -1136445706#1 -1136445706#0 4827884#0 4827884#1 4827884#2 1136445711 1136445714 219273311#0 219273311#1 219273311#2 219273311#3 219273311#4 384212608#0 384212608#1 384212608#2 384212608#3 210429351#0 210429351#1 -4839472#1 -4839472#0 20279759#0 20279759#1 20279759#2 20279759#3 20279759#4"/>
    </vehicle>
    <vehicle id="48" depart="48.00">
        <route edges="973334484#1 990822938 -990822938 -973334484#1 -973334484#0 -26404121#1 -26404121#0 -973334483#1 -973334483#0 -995103498#1 -995103498#0 -25566799#1 -25566799#0 -990822936#2 -990822936#1 -990822936#0 -69067227 -389802951#2 -389802951#1 -389802951#0 -203957021#3 -203957021#2 -203957021#1 -203957021#0 -389802137 152827342 112804960#0 112804960#1 389802135#2 389802135#3 389802135#4 389802135#5 389802135#6 205819136 201700815 1003917173 4642302#0 4642302#1 4642302#2 4642302#3 201700816 26403933#0 26403933#1 26403933#2 45073934 26403934#0 26403934#1 26403934#2 26403934#3 143769307#0 143769307#1 45049554#0 45049554#1 45051074#0 45051074#1 417316667#0 417316667#1 417316667#2"/>
    </vehicle>
    <vehicle id="50" depart="50.00">
        <route edges="-116050662#1 -116050662#0 -380556683#2 -380556683#1 -380556683#0 -257885011 262604454#0 4296031#9 4296031#10 69067200 736368261 736368260 4764303#5 226151792 4764306 1117207664 237046751#0 237046751#1 237046751#2 4745018#0 4745018#1 4745018#2 4744977#2 4744977#3 4744977#4 382336252 382336253#0 4745019#3 4745019#4 4745019#5 4745019#6 4745019#7 4745019#8"/>
    </vehicle>
    <vehicle id="51" depart="51.00">
        <route edges="46549966#0 46549966#1 46549966#2 4644898#0 4644898#1 4644898#2 4644898#3 4644898#4 4644898#5 4644898#6 4644898#7 60840346#0 60840346#1 5171324#2 389792574 -8746402 -131860123#0 41863459#0 41863459#1 41863459#2 102058901 102058910#0 102058910#1 1058909732 4296031#0 4296031#1 4296031#2 4799422 380554725 69067201 736368181 4798872 4798873 4764320#0 4764320#1 417402319"/>
    </vehicle>
    <vehicle id="52" depart="52.00">
        <route edges="-9666386#0 9666386#0 9666386#1 9666386#2 9666386#3 -26404121#0 -973334483#1 -973334483#0 -995103498#1 -995103498#0 -25566799#1 -25566799#0 -990822936#2 -990822936#1 -990822936#0 4876190#0 4876190#1 4876190#2 4876190#3 4876189 1058909732 4296031#0 4296031#1 4296031#2 4296031#3 4296031#4 4296031#5 4296031#6 4296031#7 4296031#8 262604454#1 257885007 257885008#0 257885008#1 257885008#2 -4798846#2 -4798846#1 -4798846#0 4644889#0 4644889#1 4644889#2 4644889#3 198044386#0 198044386#1 46549966#0 46549966#1 46549966#2 4573820#0"/>
    </vehicle>
    <vehicle id="53" depart="53.00">
        <route edges="-4494912#0 99798486 -99798486 -417415066 -4787455#1 -4787455#0 -198969727#1 -198969727#0 -4683299 143769308#0 143769308#1 204790848 4953268#0 4953268#1 4953268#2 4764294#0 4764294#1 4764294#2 45886022 143769305 45051066 221119203#0 221119203#1 221119203#2 221119202#0 221119202#1 4798846#0 4798846#1 4798846#2 257885010#0 257885010#1 257885010#2 226151434 32565783#0 4296031#8 4296031#9 4296031#10 235044113#0 235044113#1 235044113#2 235044113#3"/>
    </vehicle>
    <vehicle id="54" depart="54.00">
        <route edges="25548631#1 25548631#2 -438870169 438870169 -25548631#2 -25548631#1 -25548631#0 4296031#7 4296031#8 262604454#1 257885007 257885008#0 257885008#1 257885008#2 -4798846#2 -4750193#5 598335912 8751311"/>
    </vehicle>
    <vehicle id="55" depart="55.00">