<?xml version="1.0" encoding="UTF-8"?>

<!-- generated on 2023-03-08 13:31:54.426138 by randomTrips.py v1_16_0+0000-94ec4c6cd72
<configuration>
    <end value="1000"/>
    <length value="True"/>
    <net-file value="test.net.xml"/>
    <route-file value="map.rou.xml"/>
    <validate value="True"/>
</configuration>
-->

<!-- generated on 2023-03-08 13:31:53 by Eclipse SUMO duarouter Version 1.16.0
<configuration xmlns:xsi="http://www.w3.org/2001/XMLSchema-instance" xsi:noNamespaceSchemaLocation="http://sumo.dlr.de/xsd/duarouterConfiguration.xsd">

    <input>
        <net-file value="test.net.xml"/>
        <route-files value="trips.trips.xml"/>
    </input>

    <output>
        <output-file value="trips.trips.xml.tmp"/>
        <alternatives-output value="NUL"/>
        <write-trips value="true"/>
    </output>

    <time>
        <begin value="0"/>
        <end value="1000"/>
    </time>

    <report>
        <no-warnings value="true"/>
        <ignore-errors value="true"/>
        <no-step-log value="true"/>
    </report>

</configuration>
-->

<routes> <!--xmlns:xsi="http://www.w3.org/2001/XMLSchema-instance" xsi:noNamespaceSchemaLocation="http://sumo.dlr.de/xsd/routes_file.xsd">-->
    <trip id="0" depart="0.00" from="4548200" to="-16282110#4"/>
    <trip id="2" depart="2.00" from="4750188#1" to="46549966#0"/>
    <trip id="3" depart="3.00" from="595322007" to="-384186891#1"/>
    <trip id="4" depart="4.00" from="221119203#0" to="-19080750#2"/>
    <trip id="5" depart="5.00" from="-5299005#0" to="384186903"/>
    <trip id="6" depart="6.00" from="-16282110#6" to="-4904145"/>
    <trip id="7" depart="7.00" from="45886019#1" to="4296031#10"/>
    <trip id="8" depart="8.00" from="-581608796#1" to="4494926#4"/>
    <trip id="9" depart="9.00" from="4839478#1" to="-1088915060#0"/>
    <trip id="10" depart="10.00" from="4839473#0" to="4717618#1"/>
    <trip id="11" depart="11.00" from="16282110#5" to="-4717459#1"/>
    <trip id="12" depart="12.00" from="8751893#0" to="164500952"/>
    <trip id="13" depart="13.00" from="-384186891#3" to="-433028097#2"/>
    <trip id="14" depart="14.00" from="4904145" to="45051073#0"/>
    <trip id="15" depart="15.00" from="4839473#3" to="4745138"/>
    <trip id="16" depart="16.00" from="417316667#6" to="93256779#1"/>
    <trip id="17" depart="17.00" from="20279746#3" to="429651445#2"/>
    <trip id="18" depart="18.00" from="4869273#1" to="4521153#2"/>
    <trip id="19" depart="19.00" from="5171322#1" to="4494913#2"/>
    <trip id="20" depart="20.00" from="4744975#1" to="-20279759#0"/>
    <trip id="21" depart="21.00" from="-730447301#0" to="1136445708#0"/>
    <trip id="22" depart="22.00" from="-26303872" to="-83607382#3"/>
    <trip id="23" depart="23.00" from="-433028097#1" to="1047548238#0"/>
    <trip id="24" depart="24.00" from="45359877#11" to="198044378#2"/>
    <trip id="25" depart="25.00" from="198044382#3" to="-581608796#1"/>
    <trip id="26" depart="26.00" from="-9666386#0" to="77647202#1"/>
    <trip id="27" depart="27.00" from="45885961" to="45073629#0"/>
    <trip id="29" depart="29.00" from="-4717459#4" to="20279756#1"/>
    <trip id="30" depart="30.00" from="9702627" to="4567177"/>
    <trip id="31" depart="31.00" from="4296031#4" to="4683301#0"/>
    <trip id="32" depart="32.00" from="4904139#1" to="4787455#1"/>
    <trip id="33" depart="33.00" from="-732295445#1" to="-196934179#10"/>
    <trip id="34" depart="34.00" from="125068105" to="-9702644#0"/>
    <trip id="35" depart="35.00" from="-4904140#1" to="8119016#0"/>
    <trip id="36" depart="36.00" from="5363042#1" to="143769305"/>
    <trip id="37" depart="37.00" from="4627829#1" to="20466087"/>
    <trip id="38" depart="38.00" from="732295445#0" to="257885010#0"/>
    <trip id="39" depart="39.00" from="-9665293#2" to="-90682376"/>
    <trip id="40" depart="40.00" from="429651445#1" to="-9702626#1"/>
    <trip id="41" depart="41.00" from="4494912#3" to="685023881"/>
    <trip id="42" depart="42.00" from="20466088" to="-77647181"/>
    <trip id="43" depart="43.00" from="983637050#2" to="389802134#3"/>
    <trip id="44" depart="44.00" from="-384186891#0" to="-20279759#3"/>
    <trip id="45" depart="45.00" from="-4475215#3" to="45359292#1"/>
    <trip id="47" depart="47.00" from="-209263690#2" to="20279759#4"/>
    <trip id="48" depart="48.00" from="973334484#1" to="417316667#2"/>
    <trip id="50" depart="50.00" from="-116050662#1" to="4745019#8"/>
    <trip id="51" depart="51.00" from="46549966#0" to="417402319"/>
    <trip id="52" depart="52.00" from="-9666386#0" to="4573820#0"/>
    <trip id="53" depart="53.00" from="-4494912#0" to="235044113#3"/>
    <trip id="54" depart="54.00" from="25548631#1" to="8751311"/>
    <trip id="55" depart="55.00" from="5363042#1" to="-9702627"/>
    <trip id="56" depart="56.00" from="384169639" to="-4839472#1"/>
    <trip id="57" depart="57.00" from="726172047" to="52114857#2"/>
    <trip id="58" depart="58.00" from="1136445706#1" to="4548443#1"/>
    <trip id="59" depart="59.00" from="45051066" to="-4717457#0"/>
    <trip id="60" depart="60.00" from="4764318#0" to="417415067"/>
    <trip id="61" depart="61.00" from="4787481" to="417316667#4"/>
    <trip id="62" depart="62.00" from="-1003917173" to="152135172"/>
    <trip id="64" depart="64.00" from="5363043" to="4869276#1"/>
    <trip id="65" depart="65.00" from="121017976" to="-20466083#0"/>
    <trip id="66" depart="66.00" from="5363043" to="8746401#3"/>
    <trip id="69" depart="69.00" from="4764356" to="-45073629#0"/>
    <trip id="70" depart="70.00" from="28380058#1" to="4296031#9"/>
    <trip id="71" depart="71.00" from="-9665293#4" to="5299005#0"/>
    <trip id="72" depart="72.00" from="221119203#2" to="-58648676#5"/>
    <trip id="73" depart="73.00" from="417402315" to="4745138"/>
    <trip id="74" depart="74.00" from="-4865999" to="139718604#1"/>
    <trip id="75" depart="75.00" from="973334483#0" to="4627829#1"/>
    <trip id="78" depart="78.00" from="16282110#1" to="4494926#4"/>
    <trip id="79" depart="79.00" from="-732295445#2" to="-77647188"/>
    <trip id="80" depart="80.00" from="-23605430#1" to="45359877#1"/>
    <trip id="81" depart="81.00" from="-732295445#1" to="69067205"/>
    <trip id="82" depart="82.00" from="5003551#0" to="-23706683#2"/>
    <trip id="84" depart="84.00" from="-4904149#3" to="-45074078#1"/>
    <trip id="86" depart="86.00" from="28072796#0" to="4798873"/>
    <trip id="87" depart="87.00" from="4839473#4" to="-4865998#2"/>
    <trip id="88" depart="88.00" from="-417415066" to="22885877#2"/>
    <trip id="89" depart="89.00" from="221119203#2" to="26404121#1"/>
    <trip id="90" depart="90.00" from="4745073#3" to="4644902#1"/>
    <trip id="91" depart="91.00" from="9666386#0" to="-438870170#4"/>
    <trip id="93" depart="93.00" from="5171322#1" to="-95427144"/>
    <trip id="94" depart="94.00" from="-4839473#4" to="23706690"/>
    <trip id="95" depart="95.00" from="221119203#0" to="1047548238#0"/>
    <trip id="96" depart="96.00" from="-8751894#1" to="735349187"/>
    <trip id="97" depart="97.00" from="23605443" to="5171322#0"/>
    <trip id="98" depart="98.00" from="4287401" to="-20279774#0"/>
    <trip id="99" depart="99.00" from="99798486" to="4869276#2"/>
    <trip id="101" depart="101.00" from="4904149#2" to="-4764316#0"/>
    <trip id="102" depart="102.00" from="368520680" to="-730447301#0"/>
    <trip id="103" depart="103.00" from="204866197#2" to="-20466083#1"/>
    <trip id="104" depart="104.00" from="20279753#0" to="9702626#0"/>
    <trip id="105" depart="105.00" from="-9665293#6" to="4798873"/>
    <trip id="106" depart="106.00" from="25566799#0" to="22287197"/>
    <trip id="107" depart="107.00" from="8751893#0" to="973334484#0"/>
    <trip id="108" depart="108.00" from="4296031#2" to="4745019#2"/>
    <trip id="109" depart="109.00" from="-4638062#3" to="116391676#4"/>
    <trip id="111" depart="111.00" from="417415066" to="4764294#2"/>
    <trip id="112" depart="112.00" from="-20448005#3" to="4494926#3"/>
    <trip id="113" depart="113.00" from="384186891#0" to="4953267#0"/>
    <trip id="114" depart="114.00" from="-4677446#0" to="8751896#0"/>
    <trip id="115" depart="115.00" from="-26350619#0" to="-4844447#2"/>
    <trip id="116" depart="116.00" from="4494926#3" to="4644902#4"/>
    <trip id="117" depart="117.00" from="-77647202#1" to="-4494926#4"/>
    <trip id="118" depart="118.00" from="58648676#5" to="-894003182#1"/>
    <trip id="119" depart="119.00" from="4494926#3" to="4521153#2"/>
    <trip id="120" depart="120.00" from="221119199#0" to="4494926#3"/>
    <trip id="122" depart="122.00" from="-4866004" to="4745017#4"/>
    <trip id="123" depart="123.00" from="-77664306#0" to="20466087"/>
    <trip id="125" depart="125.00" from="12682521" to="4764309#0"/>
    <trip id="126" depart="126.00" from="-23605440#0" to="257885010#0"/>
    <trip id="127" depart="127.00" from="995103496" to="973334484#1"/>
    <trip id="128" depart="128.00" from="-23605440#0" to="-730447301#0"/>
    <trip id="129" depart="129.00" from="-9665293#6" to="744562460"/>
    <trip id="130" depart="130.00" from="581609404#0" to="581608794"/>
    <trip id="131" depart="131.00" from="198044378#4" to="-4717602#3"/>
    <trip id="133" depart="133.00" from="45051068#2" to="9702626#0"/>
    <trip id="134" depart="134.00" from="4627827" to="-1088915061"/>
    <trip id="137" depart="137.00" from="-45073628#6" to="-4494926#3"/>
    <trip id="138" depart="138.00" from="-4475215#0" to="430737809#0"/>
    <trip id="139" depart="139.00" from="-9702626#0" to="45051074#1"/>
    <trip id="140" depart="140.00" from="4744979#0" to="-4991161#0"/>
    <trip id="141" depart="141.00" from="45359713" to="-9702627"/>
    <trip id="142" depart="142.00" from="380554728" to="69067205"/>
    <trip id="143" depart="143.00" from="4904139#6" to="-417415066"/>
    <trip id="144" depart="144.00" from="221119203#2" to="1046745409#3"/>
    <trip id="146" depart="146.00" from="45359877#4" to="-9702626#0"/>
    <trip id="147" depart="147.00" from="4750191#1" to="429651445#2"/>
    <trip id="148" depart="148.00" from="22293435" to="-1089452022#5"/>
    <trip id="149" depart="149.00" from="-23863002#1" to="581609404#5"/>
    <trip id="150" depart="150.00" from="69067217#1" to="4296031#10"/>
    <trip id="152" depart="152.00" from="-45359877#3" to="-45073628#5"/>
    <trip id="153" depart="153.00" from="121017978" to="69067200"/>
    <trip id="154" depart="154.00" from="4803258" to="5171322#0"/>
    <trip id="156" depart="156.00" from="-8751894#1" to="-4475215#0"/>
    <trip id="157" depart="157.00" from="4787503" to="581609404#6"/>
    <trip id="158" depart="158.00" from="205820313" to="4521175#0"/>
    <trip id="160" depart="160.00" from="5171324#1" to="96646975#0"/>
    <trip id="161" depart="161.00" from="4844447#1" to="581609404#1"/>
    <trip id="162" depart="162.00" from="-16282110#3" to="4750190#0"/>
    <trip id="163" depart="163.00" from="144176629" to="736368261"/>
    <trip id="164" depart="164.00" from="4803261" to="5171324#1"/>
    <trip id="165" depart="165.00" from="4844447#1" to="-9702644#0"/>
    <trip id="166" depart="166.00" from="4799419" to="-4494912#4"/>
    <trip id="167" depart="167.00" from="52114857#3" to="4991161#1"/>
    <trip id="168" depart="168.00" from="-58648676#3" to="4865998#4"/>
    <trip id="169" depart="169.00" from="257885007" to="12682521"/>
    <trip id="171" depart="171.00" from="-16282110#1" to="-4866003"/>
    <trip id="172" depart="172.00" from="143769306#0" to="5171324#1"/>
    <trip id="173" depart="173.00" from="8751905" to="10760708#1"/>
    <trip id="174" depart="174.00" from="4548209#2" to="205818724#0"/>
    <trip id="175" depart="175.00" from="9665293#7" to="417402318"/>
    <trip id="176" depart="176.00" from="78413631" to="-4494926#3"/>
    <trip id="178" depart="178.00" from="8751898#0" to="-9702627"/>
    <trip id="179" depart="179.00" from="-4475215#3" to="235044113#2"/>
    <trip id="180" depart="180.00" from="4745072#1" to="143769304#0"/>
    <trip id="181" depart="181.00" from="45049553" to="389802135#6"/>
    <trip id="182" depart="182.00" from="20279759#4" to="4494913#0"/>
    <trip id="183" depart="183.00" from="-8751898#3" to="4744978#0"/>
    <trip id="185" depart="185.00" from="417402315" to="4745019#5"/>
    <trip id="186" depart="186.00" from="4750193#0" to="4644901"/>
    <trip id="187" depart="187.00" from="196934179#6" to="-23605443"/>
    <trip id="189" depart="189.00" from="122719539#2" to="4904149#2"/>
    <trip id="191" depart="191.00" from="121017978" to="209263691#4"/>
    <trip id="193" depart="193.00" from="-4494926#4" to="221119203#2"/>
    <trip id="194" depart="194.00" from="78413631" to="46549966#2"/>
    <trip id="195" depart="195.00" from="69067213" to="4521152#0"/>
    <trip id="196" depart="196.00" from="1136445710#2" to="4296031#6"/>
    <trip id="197" depart="197.00" from="-1003917173" to="109705405#1"/>
    <trip id="198" depart="198.00" from="226151793" to="4494913#8"/>
    <trip id="199" depart="199.00" from="4627829#0" to="26403934#3"/>
    <trip id="200" depart="200.00" from="23605440#0" to="-730447301#0"/>
    <trip id="201" depart="201.00" from="28072796#1" to="69067201"/>
    <trip id="202" depart="202.00" from="4803258" to="-4764318#0"/>
    <trip id="203" depart="203.00" from="-28380058#1" to="39891023#3"/>
    <trip id="204" depart="204.00" from="45359294#1" to="164500951"/>
    <trip id="205" depart="205.00" from="4865994" to="4764303#5"/>
    <trip id="207" depart="207.00" from="-4865998#1" to="-16282110#3"/>
    <trip id="208" depart="208.00" from="-8746405#0" to="28776351#2"/>
    <trip id="209" depart="209.00" from="4904149#3" to="-25548629#2"/>
    <trip id="210" depart="210.00" from="219273311#1" to="45359294#3"/>
    <trip id="211" depart="211.00" from="-4844447#2" to="4717602#2"/>
    <trip id="212" depart="212.00" from="380556683#0" to="-8751898#1"/>
    <trip id="213" depart="213.00" from="4627913#0" to="-10760708#3"/>
    <trip id="214" depart="214.00" from="4764309#0" to="4778498#1"/>
    <trip id="215" depart="215.00" from="-4475215#0" to="22293436"/>
    <trip id="216" depart="216.00" from="-4764316#0" to="8751894#0"/>
    <trip id="217" depart="217.00" from="39891023#3" to="-20279772#1"/>
    <trip id="218" depart="218.00" from="-8751894#1" to="4904149#2"/>
    <trip id="219" depart="219.00" from="256336250" to="4839473#4"/>
    <trip id="220" depart="220.00" from="4644893#1" to="9702626#1"/>
    <trip id="221" depart="221.00" from="4494926#3" to="8746405#0"/>
    <trip id="222" depart="222.00" from="595322007" to="45073976#2"/>
    <trip id="223" depart="223.00" from="4745017#0" to="384186903"/>
    <trip id="224" depart="224.00" from="4869273#1" to="4296031#6"/>
    <trip id="225" depart="225.00" from="69067201" to="4763830"/>
    <trip id="226" depart="226.00" from="28380058#0" to="-9666386#2"/>
    <trip id="227" depart="227.00" from="-8751310#5" to="4548210#1"/>
    <trip id="228" depart="228.00" from="4764356" to="400611707"/>
    <trip id="229" depart="229.00" from="4521153#2" to="102058910#0"/>
    <trip id="230" depart="230.00" from="-25566799#0" to="1089452022#2"/>
    <trip id="231" depart="231.00" from="-9702626#0" to="143784301#1"/>
    <trip id="232" depart="232.00" from="417402316" to="-45359877#11"/>
    <trip id="233" depart="233.00" from="-732295445#5" to="4717600#0"/>
    <trip id="234" depart="234.00" from="4744975#6" to="-22293435"/>
    <trip id="235" depart="235.00" from="205833528#0" to="422667696"/>
    <trip id="236" depart="236.00" from="219273311#4" to="-52128827#1"/>
    <trip id="237" depart="237.00" from="221119200#0" to="69067205"/>
    <trip id="238" depart="238.00" from="4494912#1" to="4717601"/>
    <trip id="239" depart="239.00" from="4981556#1" to="4764318#2"/>
    <trip id="240" depart="240.00" from="20279755#1" to="-10760708#3"/>
    <trip id="242" depart="242.00" from="4953268#1" to="8751310#5"/>
    <trip id="243" depart="243.00" from="221119199#0" to="4764294#2"/>
    <trip id="244" depart="244.00" from="422667696" to="45051068#2"/>
    <trip id="245" depart="245.00" from="-581608796#1" to="-77647181"/>
    <trip id="246" depart="246.00" from="235044113#1" to="-19080750#0"/>
    <trip id="248" depart="248.00" from="205819136" to="-4750193#4"/>
    <trip id="249" depart="249.00" from="26403934#3" to="-45073628#6"/>
    <trip id="250" depart="250.00" from="45073977#1" to="-17980414#1"/>
    <trip id="251" depart="251.00" from="20448005#5" to="4475215#0"/>
    <trip id="252" depart="252.00" from="-164500952" to="45885961"/>
    <trip id="253" depart="253.00" from="-45073629#3" to="26350619#0"/>
    <trip id="254" depart="254.00" from="-20279768#1" to="20279756#1"/>
    <trip id="255" depart="255.00" from="-4904145" to="152135172"/>
    <trip id="256" depart="256.00" from="4764316#0" to="20279756#1"/>
    <trip id="258" depart="258.00" from="-8751898#0" to="-28776346#1"/>
    <trip id="259" depart="259.00" from="-139718604#4" to="417415067"/>
    <trip id="260" depart="260.00" from="99798486" to="19080750#1"/>
    <trip id="261" depart="261.00" from="45886019#1" to="4798846#0"/>
    <trip id="263" depart="263.00" from="8746401#4" to="-4904147"/>
    <trip id="264" depart="264.00" from="-143769304#0" to="-4717457#0"/>
    <trip id="265" depart="265.00" from="-4494926#4" to="4644898#5"/>
    <trip id="266" depart="266.00" from="430737809#1" to="-736817048"/>
    <trip id="267" depart="267.00" from="4717600#1" to="4764320#0"/>
    <trip id="269" depart="269.00" from="4764303#3" to="-4494926#3"/>
    <trip id="270" depart="270.00" from="4865994" to="8751900#2"/>
    <trip id="271" depart="271.00" from="-4475215#2" to="-164500952"/>
    <trip id="272" depart="272.00" from="121929398" to="46549966#2"/>
    <trip id="273" depart="273.00" from="8751893#1" to="204866197#0"/>
    <trip id="274" depart="274.00" from="4744978#2" to="-26350619#0"/>
    <trip id="275" depart="275.00" from="4683301#0" to="45359292#1"/>
    <trip id="277" depart="277.00" from="4904182#1" to="45051066"/>
    <trip id="278" depart="278.00" from="-4494926#3" to="9666386#0"/>
    <trip id="279" depart="279.00" from="4798860#0" to="19080621"/>
    <trip id="280" depart="280.00" from="22293436" to="198642284#3"/>
    <trip id="281" depart="281.00" from="384186903" to="185756883"/>
    <trip id="283" depart="283.00" from="-4470839#2" to="8751896#0"/>
    <trip id="284" depart="284.00" from="45359877#11" to="4869274#0"/>
    <trip id="285" depart="285.00" from="4744975#7" to="235044113#3"/>
    <trip id="286" depart="286.00" from="4745138" to="8751900#3"/>
    <trip id="287" depart="287.00" from="-9702626#0" to="4844447#3"/>
    <trip id="289" depart="289.00" from="235044113#1" to="4745138"/>
    <trip id="290" depart="290.00" from="-9666386#0" to="491303421"/>
    <trip id="291" depart="291.00" from="4869273#1" to="-384186891#0"/>
    <trip id="292" depart="292.00" from="581609404#1" to="-8751898#1"/>
    <trip id="293" depart="293.00" from="26350619#0" to="45073629#4"/>
    <trip id="294" depart="294.00" from="20279753#0" to="-19080750#0"/>
    <trip id="295" depart="295.00" from="4904182#2" to="-4839473#4"/>
    <trip id="296" depart="296.00" from="-4904145" to="4827884#0"/>
    <trip id="297" depart="297.00" from="162901771#0" to="581609404#0"/>
    <trip id="298" depart="298.00" from="4717602#1" to="1046745409#1"/>
    <trip id="299" depart="299.00" from="-1136445706#1" to="8746402"/>
    <trip id="300" depart="300.00" from="-28380058#2" to="4745019#6"/>
    <trip id="302" depart="302.00" from="4683301#0" to="45886021"/>
    <trip id="303" depart="303.00" from="380554729" to="4799422"/>
    <trip id="304" depart="304.00" from="-384186891#3" to="-77647202#1"/>
    <trip id="306" depart="306.00" from="4494909#1" to="28380058#2"/>
    <trip id="307" depart="307.00" from="417313760#1" to="226150745"/>
    <trip id="309" depart="309.00" from="4717618#0" to="-973334484#1"/>
    <trip id="310" depart="310.00" from="-8751896#0" to="-4494926#4"/>
    <trip id="311" depart="311.00" from="-4844446#1" to="-4494926#4"/>
    <trip id="312" depart="312.00" from="417316667#5" to="4764316#0"/>
    <trip id="313" depart="313.00" from="-4798846#0" to="-732295445#3"/>
    <trip id="314" depart="314.00" from="368520680" to="4745072#1"/>
    <trip id="315" depart="315.00" from="96646975#0" to="400611707"/>
    <trip id="316" depart="316.00" from="-99798486" to="-4470839#1"/>
    <trip id="317" depart="317.00" from="-4844447#1" to="-78413631"/>
    <trip id="318" depart="318.00" from="-4764318#0" to="-121929390"/>
    <trip id="319" depart="319.00" from="417316667#3" to="102058910#0"/>
    <trip id="320" depart="320.00" from="95427144" to="430737809#0"/>
    <trip id="321" depart="321.00" from="4717459#4" to="-45051111#1"/>
    <trip id="322" depart="322.00" from="5171327#1" to="380556683#0"/>
    <trip id="323" depart="323.00" from="52128827#0" to="4494912#0"/>
    <trip id="324" depart="324.00" from="26404121#1" to="23605440#0"/>
    <trip id="325" depart="325.00" from="-4798846#0" to="-20279774#2"/>
    <trip id="326" depart="326.00" from="78413636#0" to="315405066#3"/>
    <trip id="327" depart="327.00" from="4866000#0" to="205819136"/>
    <trip id="328" depart="328.00" from="-23706683#1" to="45359294#1"/>
    <trip id="329" depart="329.00" from="-20279774#2" to="-4677446#0"/>
    <trip id="331" depart="331.00" from="9702644#2" to="-4494926#4"/>
    <trip id="333" depart="333.00" from="4799419" to="-78334965#2"/>
    <trip id="335" depart="335.00" from="23605440#0" to="5003551#0"/>
    <trip id="336" depart="336.00" from="9702627" to="12682521"/>
    <trip id="337" depart="337.00" from="45073976#2" to="45073629#2"/>
    <trip id="338" depart="338.00" from="4750190#1" to="8746401#5"/>
    <trip id="339" depart="339.00" from="-4904139#4" to="-58648676#3"/>
    <trip id="340" depart="340.00" from="4638062#4" to="-4717602#2"/>
    <trip id="341" depart="341.00" from="-4750193#2" to="-25566799#0"/>
    <trip id="342" depart="342.00" from="-10760708#1" to="24375800#1"/>
    <trip id="343" depart="343.00" from="4494926#3" to="1136445710#2"/>
    <trip id="344" depart="344.00" from="-732295445#5" to="4744977#2"/>
    <trip id="345" depart="345.00" from="4717618#1" to="25566799#0"/>
    <trip id="346" depart="346.00" from="4683299" to="735349188"/>
    <trip id="347" depart="347.00" from="4799419" to="45359292#0"/>
    <trip id="348" depart="348.00" from="4642302#2" to="744562460"/>
    <trip id="349" depart="349.00" from="221119204#3" to="4296031#1"/>
    <trip id="350" depart="350.00" from="4573820#1" to="69067217#1"/>
    <trip id="351" depart="351.00" from="4869258" to="-23863002#1"/>
    <trip id="352" depart="352.00" from="-4717618#1" to="131860123#0"/>
    <trip id="353" depart="353.00" from="4764309#0" to="4483894#0"/>
    <trip id="354" depart="354.00" from="1047548238#0" to="-4497322#0"/>
    <trip id="355" depart="355.00" from="4683300#0" to="4744975#1"/>
    <trip id="356" depart="356.00" from="827453788" to="384186891#0"/>
    <trip id="357" depart="357.00" from="380556683#0" to="-28380058#1"/>
    <trip id="358" depart="358.00" from="-198044378#3" to="235044113#1"/>
    <trip id="359" depart="359.00" from="13444212#1" to="-96223023"/>
    <trip id="360" depart="360.00" from="-384186891#1" to="8751898#1"/>
    <trip id="363" depart="363.00" from="4644897#3" to="-9702644#5"/>
    <trip id="365" depart="365.00" from="27026763#0" to="4627913#0"/>
    <trip id="366" depart="366.00" from="732295445#2" to="-4839473#4"/>
    <trip id="367" depart="367.00" from="4494912#4" to="4542288"/>
    <trip id="368" depart="368.00" from="380554729" to="-417415066"/>
    <trip id="369" depart="369.00" from="185136473" to="16282110#4"/>
    <trip id="370" depart="370.00" from="4644896#1" to="4981556#3"/>
    <trip id="371" depart="371.00" from="143769307#1" to="4717559#2"/>
    <trip id="372" depart="372.00" from="1047548238#0" to="83607382#3"/>
    <trip id="373" depart="373.00" from="4844449#2" to="4296031#9"/>
    <trip id="374" depart="374.00" from="25566799#0" to="143769305"/>
    <trip id="376" depart="376.00" from="205819136" to="39891023#1"/>
    <trip id="377" depart="377.00" from="9702626#1" to="4644887"/>
    <trip id="378" depart="378.00" from="417415066" to="221112625#1"/>
    <trip id="379" depart="379.00" from="-4839472#1" to="19785406"/>
    <trip id="381" depart="381.00" from="4764316#0" to="-4991161#0"/>
    <trip id="383" depart="383.00" from="235044113#3" to="4741290"/>
    <trip id="384" depart="384.00" from="-4494926#3" to="93256779#1"/>
    <trip id="385" depart="385.00" from="45051066" to="-8751890#1"/>
    <trip id="386" depart="386.00" from="-4683299" to="429651445#1"/>
    <trip id="387" depart="387.00" from="4287401" to="-417415067"/>
    <trip id="388" depart="388.00" from="9702644#0" to="69067218"/>
    <trip id="389" depart="389.00" from="257885008#2" to="-4494926#3"/>
    <trip id="390" depart="390.00" from="4869273#1" to="384169639"/>
    <trip id="391" depart="391.00" from="4744978#4" to="389802134#2"/>
    <trip id="392" depart="392.00" from="-9702627" to="4869276#2"/>
    <trip id="393" depart="393.00" from="9665293#0" to="-8751898#0"/>
    <trip id="394" depart="394.00" from="4287401" to="20279770#3"/>
    <trip id="395" depart="395.00" from="736368180" to="389802134#1"/>
    <trip id="396" depart="396.00" from="5730546#1" to="5171324#1"/>
    <trip id="398" depart="398.00" from="219273311#3" to="744562460"/>
    <trip id="399" depart="399.00" from="384186903" to="4866001#1"/>
    <trip id="401" depart="401.00" from="4494913#11" to="99798486"/>
    <trip id="403" depart="403.00" from="417402315" to="19080619#0"/>
    <trip id="404" depart="404.00" from="4287401" to="42796910#0"/>
    <trip id="405" depart="405.00" from="25566799#0" to="144176630#2"/>
    <trip id="406" depart="406.00" from="-4839473#2" to="4717618#0"/>
    <trip id="407" depart="407.00" from="4470839#4" to="-86419877"/>
    <trip id="408" depart="408.00" from="4787473#1" to="-20279755#1"/>
    <trip id="409" depart="409.00" from="4764294#1" to="4744977#0"/>
    <trip id="410" depart="410.00" from="4844447#2" to="203403883#0"/>
    <trip id="411" depart="411.00" from="4644887" to="4866001#1"/>
    <trip id="412" depart="412.00" from="9665293#6" to="381215016"/>
    <trip id="413" depart="413.00" from="-196934179#8" to="384186891#3"/>
    <trip id="414" depart="414.00" from="4494926#3" to="52114857#1"/>
    <trip id="415" depart="415.00" from="5299005#0" to="23605440#0"/>
    <trip id="417" depart="417.00" from="4745019#2" to="210429351#1"/>
    <trip id="418" depart="418.00" from="4627829#0" to="-4717458"/>
    <trip id="420" depart="420.00" from="16282110#3" to="4717459#7"/>
    <trip id="421" depart="421.00" from="45886019#1" to="491303421"/>
    <trip id="422" depart="422.00" from="4953267#0" to="4991161#1"/>
    <trip id="423" depart="423.00" from="20279755#0" to="143769307#0"/>
    <trip id="425" depart="425.00" from="52114857#3" to="-19797475"/>
    <trip id="426" depart="426.00" from="-22885877#2" to="45359877#1"/>
    <trip id="427" depart="427.00" from="736368179" to="990822936#1"/>
    <trip id="428" depart="428.00" from="4764303#1" to="235044113#2"/>
    <trip id="429" depart="429.00" from="-417415067" to="45359877#4"/>
    <trip id="430" depart="430.00" from="52128827#0" to="237046751#2"/>
    <trip id="431" depart="431.00" from="4717457#0" to="69067201"/>
    <trip id="433" depart="433.00" from="1088915061" to="20279746#3"/>
    <trip id="434" depart="434.00" from="-45359294#3" to="417316667#4"/>
    <trip id="435" depart="435.00" from="433028097#0" to="4799422"/>
    <trip id="436" depart="436.00" from="-4745073#3" to="-26404121#1"/>
    <trip id="437" depart="437.00" from="52114857#1" to="4521175#0"/>
    <trip id="438" depart="438.00" from="-83607382#1" to="69067218"/>
    <trip id="439" depart="439.00" from="-45359120#4" to="26303866#1"/>
    <trip id="440" depart="440.00" from="-8751898#2" to="-9665293#6"/>
    <trip id="441" depart="441.00" from="-1089452022#5" to="4844446#1"/>
    <trip id="443" depart="443.00" from="-4683299" to="23605443"/>
    <trip id="444" depart="444.00" from="17980415#1" to="4494926#4"/>
    <trip id="445" depart="445.00" from="4548200" to="22293435"/>
    <trip id="446" depart="446.00" from="-8751896#0" to="4904140#1"/>
    <trip id="447" depart="447.00" from="-4865998#2" to="20279774#0"/>
    <trip id="448" depart="448.00" from="361218133" to="-8746407#0"/>
    <trip id="449" depart="449.00" from="4470839#4" to="4494912#3"/>
    <trip id="450" depart="450.00" from="9702644#0" to="116050662#1"/>
    <trip id="451" depart="451.00" from="96646975#1" to="4644887"/>
    <trip id="452" depart="452.00" from="-9702627" to="4475215#3"/>
    <trip id="453" depart="453.00" from="4677446#0" to="4763830"/>
    <trip id="454" depart="454.00" from="-20279759#3" to="45051111#0"/>
    <trip id="455" depart="455.00" from="380808600#1" to="69067201"/>
    <trip id="456" depart="456.00" from="1046745409#1" to="4839472#0"/>
    <trip id="457" depart="457.00" from="45049554#0" to="19081187"/>
    <trip id="458" depart="458.00" from="45359877#3" to="4521175#0"/>
    <trip id="460" depart="460.00" from="4638062#3" to="4876190#1"/>
    <trip id="462" depart="462.00" from="4573820#0" to="13444210#1"/>
    <trip id="463" depart="463.00" from="23605430#0" to="4494913#6"/>
    <trip id="465" depart="465.00" from="1089452022#0" to="4764294#2"/>
    <trip id="466" depart="466.00" from="-4750193#5" to="-45074078#1"/>
    <trip id="467" depart="467.00" from="417402315" to="93230126#2"/>
    <trip id="468" depart="468.00" from="417313760#1" to="69067221#2"/>
    <trip id="469" depart="469.00" from="4869273#1" to="-9666386#0"/>
    <trip id="471" depart="471.00" from="4839473#2" to="4763830"/>
    <trip id="472" depart="472.00" from="16282110#3" to="-4494926#3"/>
    <trip id="473" depart="473.00" from="8751898#0" to="-4548200"/>