<?xml version="1.0" encoding="UTF-8"?>

<!-- generated on 2023-03-09 11:30:21.076538 by randomTrips.py v1_16_0+0000-94ec4c6cd72
<configuration>
    <end value="1000"/>
    <length value="True"/>
    <net-file value="test.net.xml"/>
    <route-file value="map.rou.xml"/>
    <validate value="True"/>
</configuration>
-->

<!-- generated on 2023-03-09 11:30:17 by Eclipse SUMO duarouter Version 1.16.0
<configuration xmlns:xsi="http://www.w3.org/2001/XMLSchema-instance" xsi:noNamespaceSchemaLocation="http://sumo.dlr.de/xsd/duarouterConfiguration.xsd">

    <input>
        <net-file value="test.net.xml"/>
        <route-files value="trips.trips.xml"/>
    </input>

    <output>
        <output-file value="trips.trips.xml.tmp"/>
        <alternatives-output value="NUL"/>
        <write-trips value="true"/>
    </output>

    <time>
        <begin value="0"/>
        <end value="1000"/>
    </time>

    <report>
        <no-warnings value="true"/>
        <ignore-errors value="true"/>
        <no-step-log value="true"/>
    </report>

</configuration>
-->

<routes xmlns:xsi="http://www.w3.org/2001/XMLSchema-instance" xsi:noNamespaceSchemaLocation="http://sumo.dlr.de/xsd/routes_file.xsd">
    <trip id="2" depart="2.00" from="3981449" to="33182413"/>
    <trip id="3" depart="3.00" from="546683549" to="-228118615"/>
    <trip id="5" depart="5.00" from="-43522465#0" to="22434753"/>
    <trip id="7" depart="7.00" from="30880086" to="23471558"/>
    <trip id="9" depart="9.00" from="439078383" to="-108031399"/>
    <trip id="13" depart="13.00" from="-23282846#1" to="-236387093"/>
    <trip id="14" depart="14.00" from="470165452" to="26259945"/>
    <trip id="15" depart="15.00" from="4374819" to="38703320"/>
    <trip id="20" depart="20.00" from="363637145" to="-1818"/>
    <trip id="22" depart="22.00" from="-216127556" to="-45790952"/>
    <trip id="39" depart="39.00" from="-581657207" to="-4886857"/>
    <trip id="44" depart="44.00" from="-23149803" to="-18522976"/>
    <trip id="46" depart="46.00" from="4264435" to="162993263"/>
    <trip id="47" depart="47.00" from="-20279753#2" to="142804845"/>
    <trip id="49" depart="49.00" from="82939977" to="4856729#1"/>
    <trip id="52" depart="52.00" from="-60102026" to="3058683"/>
    <trip id="54" depart="54.00" from="198749016" to="77519322"/>
    <trip id="55" depart="55.00" from="4991161#2" to="-581372777"/>
    <trip id="58" depart="58.00" from="-8379246" to="302938896"/>
    <trip id="59" depart="59.00" from="263438831" to="-31365506"/>
    <trip id="62" depart="62.00" from="-100963040" to="108356494"/>
    <trip id="67" depart="67.00" from="-225018504" to="209247056"/>
    <trip id="69" depart="69.00" from="4017052" to="-260693064"/>
    <trip id="73" depart="73.00" from="23314746" to="38703320"/>
    <trip id="75" depart="75.00" from="97696465" to="30832447#0"/>
    <trip id="78" depart="78.00" from="11270090#1" to="250475799"/>
    <trip id="79" depart="79.00" from="-455497725" to="-43999759"/>
    <trip id="83" depart="83.00" from="-4677741#0" to="32612713"/>
    <trip id="85" depart="85.00" from="712240243" to="242647839"/>
    <trip id="87" depart="87.00" from="43841755" to="-3785957"/>
    <trip id="91" depart="91.00" from="93549156" to="-237572637"/>
    <trip id="92" depart="92.00" from="147157040#4" to="114331022#0"/>
    <trip id="94" depart="94.00" from="-3785957" to="194664256"/>
    <trip id="99" depart="99.00" from="99343844" to="4578437"/>
    <trip id="102" depart="102.00" from="209248457" to="-4272906"/>
    <trip id="103" depart="103.00" from="146383213#1" to="-199551085"/>
    <trip id="105" depart="105.00" from="-5851748" to="4143441"/>
    <trip id="106" depart="106.00" from="198965784" to="163664303"/>
    <trip id="110" depart="110.00" from="8154136" to="246719242"/>
    <trip id="111" depart="111.00" from="234039611" to="4000326"/>
    <trip id="112" depart="112.00" from="-198798067" to="249123995#1"/>
    <trip id="115" depart="115.00" from="-218107269" to="-370064403"/>
    <trip id="123" depart="123.00" from="-4690569" to="145489116#0"/>
    <trip id="125" depart="125.00" from="1028703011" to="4000338"/>
    <trip id="127" depart="127.00" from="98622587" to="9786990"/>
    <trip id="129" depart="129.00" from="-5851748" to="704950141#0"/>
    <trip id="135" depart="135.00" from="4470838" to="-85479756"/>
    <trip id="137" depart="137.00" from="-265399407#1" to="-24760574"/>
    <trip id="142" depart="142.00" from="210425425" to="60074667"/>
    <trip id="151" depart="151.00" from="45773620" to="24808487"/>
    <trip id="152" depart="152.00" from="-30607002" to="-257590080"/>
    <trip id="154" depart="154.00" from="430663054" to="4856729#0"/>
    <trip id="158" depart="158.00" from="151952408" to="27823788"/>
    <trip id="160" depart="160.00" from="48868744" to="860476481#2"/>
    <trip id="166" depart="166.00" from="420556615" to="-24262788"/>
    <trip id="169" depart="169.00" from="200342180" to="-9539566#4"/>
    <trip id="172" depart="172.00" from="108960767" to="4886857"/>
    <trip id="176" depart="176.00" from="729756385" to="-24760574"/>
    <trip id="179" depart="179.00" from="-24232504#1" to="178643882"/>
    <trip id="183" depart="183.00" from="-50544417" to="36903039"/>
    <trip id="190" depart="190.00" from="3808543#1" to="-87244313"/>
    <trip id="193" depart="193.00" from="-25566799#0" to="162006742"/>
    <trip id="194" depart="194.00" from="729756387" to="33182413"/>
    <trip id="198" depart="198.00" from="171453466" to="24760567"/>
    <trip id="209" depart="209.00" from="472341216" to="-20898561"/>
    <trip id="212" depart="212.00" from="217345297" to="-4844507#1"/>
    <trip id="216" depart="216.00" from="-33240539" to="77604460"/>
    <trip id="220" depart="220.00" from="32611796#0" to="94939658"/>
    <trip id="225" depart="225.00" from="56744118" to="4000258"/>
    <trip id="231" depart="231.00" from="-60672573#0" to="10647117#1"/>
    <trip id="234" depart="234.00" from="3664225#0" to="-203515888#4"/>
    <trip id="243" depart="243.00" from="161126237" to="4000326"/>
    <trip id="255" depart="255.00" from="-419896890" to="108960756"/>
    <trip id="260" depart="260.00" from="998163597#0" to="118222680"/>
    <trip id="261" depart="261.00" from="309734230" to="40895418"/>
    <trip id="263" depart="263.00" from="7646352" to="-402270051"/>
    <trip id="265" depart="265.00" from="-25324874" to="326273816"/>
    <trip id="266" depart="266.00" from="241161448" to="-4370720"/>
    <trip id="267" depart="267.00" from="354318314" to="401779461"/>
    <trip id="269" depart="269.00" from="4000329" to="-246556568"/>
    <trip id="272" depart="272.00" from="100963037" to="33182413"/>
    <trip id="274" depart="274.00" from="3785957" to="-210629892"/>
    <trip id="277" depart="277.00" from="4744975#7" to="26155875"/>
    <trip id="289" depart="289.00" from="180579429" to="38788472#1"/>
    <trip id="291" depart="291.00" from="45568798#0" to="-226882021"/>
    <trip id="293" depart="293.00" from="202753993#0" to="26403933#2"/>
    <trip id="300" depart="300.00" from="-225018504" to="38060906"/>
    <trip id="301" depart="301.00" from="210429351#0" to="4000346"/>
    <trip id="302" depart="302.00" from="34568015" to="30606793"/>
    <trip id="306" depart="306.00" from="24811248" to="204867857"/>
    <trip id="307" depart="307.00" from="230360635" to="164390705"/>
    <trip id="313" depart="313.00" from="-36394099" to="-4337420"/>
    <trip id="319" depart="319.00" from="23149791" to="-635136151#1"/>
    <trip id="320" depart="320.00" from="8470531#1" to="23774406#1"/>
    <trip id="321" depart="321.00" from="35066591" to="-25549614#1"/>
    <trip id="322" depart="322.00" from="490761767" to="211406155"/>
    <trip id="331" depart="331.00" from="970646928" to="-249123994"/>
    <trip id="333" depart="333.00" from="4256320" to="-45073140#2"/>
    <trip id="334" depart="334.00" from="22927014" to="196221576"/>
    <trip id="336" depart="336.00" from="957929970" to="-95744258"/>
    <trip id="347" depart="347.00" from="4212025" to="28379992#3"/>
    <trip id="348" depart="348.00" from="31965" to="70528430"/>
    <trip id="349" depart="349.00" from="164390705" to="23449196#0"/>
    <trip id="357" depart="357.00" from="216127557" to="-22006243#2"/>
    <trip id="358" depart="358.00" from="-157590296" to="177278143"/>
    <trip id="362" depart="362.00" from="7646353" to="995438710"/>
    <trip id="364" depart="364.00" from="-158371794#0" to="4000343"/>
    <trip id="373" depart="373.00" from="442727075" to="23745003"/>
    <trip id="377" depart="377.00" from="94939689" to="314226737"/>
    <trip id="380" depart="380.00" from="4000345" to="28451549"/>
    <trip id="394" depart="394.00" from="237566251" to="143769123#1"/>
    <trip id="397" depart="397.00" from="-656254487#0" to="4235086"/>
    <trip id="402" depart="402.00" from="211133561" to="-30820980"/>
    <trip id="404" depart="404.00" from="23758002" to="234048784#2"/>
    <trip id="405" depart="405.00" from="199095255#1" to="108031381"/>
    <trip id="406" depart="406.00" from="-37600703#0" to="349272377"/>
    <trip id="407" depart="407.00" from="242773843" to="-45886020#1"/>
    <trip id="410" depart="410.00" from="44067907#1" to="143885166"/>
    <trip id="411" depart="411.00" from="32297624" to="44890315"/>
    <trip id="418" depart="418.00" from="314096602" to="-314096602"/>
    <trip id="420" depart="420.00" from="112796927" to="34620998"/>
    <trip id="421" depart="421.00" from="30880078" to="47464311#1"/>
    <trip id="422" depart="422.00" from="475556768" to="484833292"/>
    <trip id="423" depart="423.00" from="141564040" to="104975665"/>
    <trip id="426" depart="426.00" from="-204736334#0" to="29089862#1"/>
    <trip id="428" depart="428.00" from="4000325" to="177888964"/>
    <trip id="429" depart="429.00" from="-23731396" to="2955991"/>
    <trip id="432" depart="432.00" from="-1818" to="4301078"/>
    <trip id="438" depart="438.00" from="-470298288" to="61012410"/>
    <trip id="439" depart="439.00" from="-28776340#4" to="200360644"/>
    <trip id="441" depart="441.00" from="-1089708379" to="43667537"/>
    <trip id="444" depart="444.00" from="116781559" to="25023785"/>
    <trip id="448" depart="448.00" from="207275401" to="-4677446#0"/>
    <trip id="449" depart="449.00" from="24289763" to="24324817"/>
    <trip id="451" depart="451.00" from="8751898#1" to="31464900"/>
    <trip id="455" depart="455.00" from="220036905" to="594888682"/>
    <trip id="460" depart="460.00" from="31539684" to="4604626#1"/>
    <trip id="463" depart="463.00" from="187718762#1" to="247132527#0"/>
    <trip id="465" depart="465.00" from="-8116521" to="4000326"/>
    <trip id="467" depart="467.00" from="23314821" to="8308758"/>
    <trip id="468" depart="468.00" from="230360635" to="61119096"/>
    <trip id="470" depart="470.00" from="45073976#0" to="207077418"/>
    <trip id="471" depart="471.00" from="4372851" to="4000322"/>
    <trip id="472" depart="472.00" from="1128192354#1" to="-24760567"/>
    <trip id="473" depart="473.00" from="8061062" to="-287244508"/>
    <trip id="474" depart="474.00" from="8104392" to="4853084"/>
    <trip id="476" depart="476.00" from="8116521" to="43667537"/>
    <trip id="479" depart="479.00" from="198952715" to="330114287"/>
    <trip id="480" depart="480.00" from="330118899" to="249287037#1"/>
    <trip id="483" depart="483.00" from="-123817379#1" to="511777575#0"/>
    <trip id="487" depart="487.00" from="-88760448#0" to="153212570"/>
    <trip id="492" depart="492.00" from="329111756" to="3998279"/>
    <trip id="493" depart="493.00" from="74607873" to="161718374#1"/>
    <trip id="495" depart="495.00" from="158366450#0" to="-23758369"/>
    <trip id="499" depart="499.00" from="7646352" to="4798281"/>
    <trip id="503" depart="503.00" from="-37802142" to="-251712237"/>
    <trip id="505" depart="505.00" from="32267" to="3058702"/>
    <trip id="521" depart="521.00" from="4000321" to="205877952"/>
    <trip id="525" depart="525.00" from="41363089#1" to="4904139#4"/>
    <trip id="527" depart="527.00" from="8076457" to="-201333250"/>
    <trip id="532" depart="532.00" from="-203910670#7" to="-65202020"/>
    <trip id="536" depart="536.00" from="263356380#2" to="-23760767"/>
    <trip id="539" depart="539.00" from="382890516" to="-430662118"/>
    <trip id="542" depart="542.00" from="159110082" to="-23471558"/>
    <trip id="547" depart="547.00" from="-235744961" to="3993312"/>
    <trip id="548" depart="548.00" from="44068372" to="238663508"/>
    <trip id="555" depart="555.00" from="246568459#1" to="-4252299#0"/>
    <trip id="566" depart="566.00" from="1137655824#0" to="-108031384"/>
    <trip id="579" depart="579.00" from="4000341" to="-24581060#1"/>
    <trip id="582" depart="582.00" from="32546795" to="-180827927#1"/>
    <trip id="583" depart="583.00" from="145071759" to="258978977"/>
    <trip id="584" depart="584.00" from="-108960746" to="-889984798#0"/>
    <trip id="587" depart="587.00" from="-108960748#0" to="4000322"/>
    <trip id="590" depart="590.00" from="4570715" to="4371108"/>
    <trip id="594" depart="594.00" from="24409079" to="24300160"/>
    <trip id="597" depart="597.00" from="108356492" to="4344956"/>
    <trip id="599" depart="599.00" from="65202025" to="-229267261"/>
    <trip id="601" depart="601.00" from="251710779" to="22927496"/>
    <trip id="602" depart="602.00" from="145345983#0" to="100670518"/>
    <trip id="613" depart="613.00" from="4000341" to="4000359"/>
    <trip id="616" depart="616.00" from="28431143" to="4886857"/>
    <trip id="617" depart="617.00" from="28776340#4" to="-31000828#0"/>
    <trip id="620" depart="620.00" from="-198653835" to="225077712"/>
    <trip id="621" depart="621.00" from="-990633026" to="197572145"/>
    <trip id="622" depart="622.00" from="-198749011" to="45568798#1"/>
    <trip id="623" depart="623.00" from="-210629891" to="4886857"/>
    <trip id="624" depart="624.00" from="4799029" to="26961464"/>
    <trip id="630" depart="630.00" from="-30831975#2" to="-202753992#0"/>
    <trip id="639" depart="639.00" from="4243103#1" to="30726389"/>
    <trip id="649" depart="649.00" from="137633577" to="4257003#0"/>
    <trip id="653" depart="653.00" from="30682449" to="163761542"/>
    <trip id="656" depart="656.00" from="75745034#3" to="209248563"/>
    <trip id="658" depart="658.00" from="-211038444" to="467564194"/>
    <trip id="670" depart="670.00" from="23149635" to="-99343844"/>
    <trip id="673" depart="673.00" from="75653676" to="939539180"/>
    <trip id="676" depart="676.00" from="8104390" to="4445452"/>
    <trip id="679" depart="679.00" from="49772910" to="238093299#1"/>
    <trip id="681" depart="681.00" from="4750267" to="-744390810"/>
    <trip id="683" depart="683.00" from="598333082#1" to="-30607107"/>
    <trip id="691" depart="691.00" from="30880698" to="4256318"/>
    <trip id="695" depart="695.00" from="195424838#0" to="-1064857044"/>
    <trip id="697" depart="697.00" from="45784069" to="23697103#1"/>
    <trip id="698" depart="698.00" from="386961143" to="22947019"/>
    <trip id="701" depart="701.00" from="161830357" to="4274360"/>
    <trip id="704" depart="704.00" from="-1149961739" to="228118616"/>
    <trip id="707" depart="707.00" from="-470297977" to="160680036"/>
    <trip id="710" depart="710.00" from="22944192" to="225077712"/>
    <trip id="716" depart="716.00" from="39346143" to="28776340#1"/>
    <trip id="718" depart="718.00" from="1106462617" to="-177461756"/>
    <trip id="721" depart="721.00" from="202753992#1" to="34731464"/>
    <trip id="725" depart="725.00" from="-177390915#6" to="-402516192"/>
    <trip id="726" depart="726.00" from="-165729898#0" to="704950141#1"/>
    <trip id="729" depart="729.00" from="4000339" to="-3785968"/>
    <trip id="730" depart="730.00" from="119787788#0" to="40895418"/>
    <trip id="733" depart="733.00" from="52712108" to="4000258"/>
    <trip id="740" depart="740.00" from="235745791#1" to="1074320552"/>
    <trip id="742" depart="742.00" from="-957924924" to="262192326"/>
    <trip id="743" depart="743.00" from="164390705" to="33891167"/>
    <trip id="745" depart="745.00" from="49368838" to="118513816"/>
    <trip id="752" depart="752.00" from="409756573" to="-144597758"/>
    <trip id="758" depart="758.00" from="24324676#0" to="22952081"/>
    <trip id="762" depart="762.00" from="143885166" to="239883847"/>
    <trip id="764" depart="764.00" from="19352979" to="9786997#1"/>
    <trip id="766" depart="766.00" from="211516118" to="-251712237"/>
    <trip id="767" depart="767.00" from="4764309#0" to="197572261"/>
    <trip id="768" depart="768.00" from="571480485#1" to="1884"/>
    <trip id="770" depart="770.00" from="4688526#2" to="10647117#1"/>
    <trip id="771" depart="771.00" from="117383820" to="-203910670#8"/>
    <trip id="772" depart="772.00" from="234039611" to="54642157#0"/>
    <trip id="782" depart="782.00" from="995438710" to="37964722"/>
    <trip id="784" depart="784.00" from="45049557#1" to="-209249182#2"/>
    <trip id="785" depart="785.00" from="83613" to="3058702"/>
    <trip id="790" depart="790.00" from="177278148#1" to="605106055#2"/>
    <trip id="791" depart="791.00" from="-198044376#0" to="-251779794"/>
    <trip id="792" depart="792.00" from="-31027634" to="-32985723"/>
    <trip id="793" depart="793.00" from="108031381" to="370064403"/>
    <trip id="795" depart="795.00" from="56339616" to="4681927#1"/>
    <trip id="801" depart="801.00" from="315215570" to="380618974#5"/>
    <trip id="802" depart="802.00" from="26282683" to="4648404#1"/>
    <trip id="803" depart="803.00" from="241161448" to="45072803#0"/>
    <trip id="806" depart="806.00" from="31027634" to="401779461"/>
    <trip id="807" depart="807.00" from="160286463" to="30335815"/>
    <trip id="810" depart="810.00" from="207275401" to="43667537"/>
    <trip id="812" depart="812.00" from="-206879921" to="-200342180"/>
    <trip id="822" depart="822.00" from="143769117" to="27018369"/>
    <trip id="825" depart="825.00" from="246556566#1" to="1019515380"/>
    <trip id="827" depart="827.00" from="228118612" to="22006243#2"/>
    <trip id="830" depart="830.00" from="8104392" to="-430662118"/>
    <trip id="832" depart="832.00" from="218107269" to="50544417"/>
    <trip id="837" depart="837.00" from="124988777" to="146393611"/>
    <trip id="840" depart="840.00" from="223996498#0" to="4000372"/>
    <trip id="841" depart="841.00" from="-685023881#0" to="9539566#1"/>
    <trip id="844" depart="844.00" from="4296031#9" to="114001660#3"/>
    <trip id="851" depart="851.00" from="108960759" to="26706064"/>
    <trip id="853" depart="853.00" from="3993327#2" to="-85132484"/>
    <trip id="854" depart="854.00" from="1126096434" to="45359120#5"/>
    <trip id="855" depart="855.00" from="23103394" to="36903038"/>
    <trip id="857" depart="857.00" from="129824157" to="331674956"/>
    <trip id="858" depart="858.00" from="902426357#0" to="249121827"/>
    <trip id="863" depart="863.00" from="246556563" to="38309181"/>
    <trip id="868" depart="868.00" from="75764972" to="-24299417#1"/>
    <trip id="887" depart="887.00" from="704950141#1" to="4289197"/>
    <trip id="893" depart="893.00" from="37802142" to="117219287"/>
    <trip id="899" depart="899.00" from="-475556767#1" to="326399283"/>
    <trip id="901" depart="901.00" from="-191613308#2" to="156099312"/>
    <trip id="908" depart="908.00" from="106797780" to="30606793"/>
    <trip id="910" depart="910.00" from="243593475" to="231589850"/>
    <trip id="914" depart="914.00" from="6489835#1" to="979572127"/>
    <trip id="916" depart="916.00" from="712240243" to="8032814"/>
    <trip id="920" depart="920.00" from="-736817048" to="9539566#4"/>
    <trip id="922" depart="922.00" from="72611077" to="4744975#1"/>
    <trip id="924" depart="924.00" from="-243599701" to="-32621026#1"/>
    <trip id="926" depart="926.00" from="-368516500#4" to="3981449"/>
    <trip id="930" depart="930.00" from="4533102" to="228118612"/>
    <trip id="933" depart="933.00" from="1080506887" to="-49307572"/>
    <trip id="935" depart="935.00" from="4000341" to="77519322"/>
    <trip id="936" depart="936.00" from="-8746407#0" to="38358086"/>
    <trip id="940" depart="940.00" from="149795898" to="223429078"/>
    <trip id="943" depart="943.00" from="62150200" to="-8153111#1"/>
    <trip id="945" depart="945.00" from="-26350978#4" to="-31400651"/>
    <trip id="955" depart="955.00" from="225017493#0" to="24298067"/>
    <trip id="959" depart="959.00" from="-231589850" to="226354868"/>
    <trip id="966" depart="966.00" from="-179699485" to="116781558"/>
    <trip id="979" depart="979.00" from="22952081" to="38703061"/>
    <trip id="980" depart="980.00" from="-44448152" to="-1052386060"/>
    <trip id="981" depart="981.00" from="-119787788#1" to="-84636740"/>
    <trip id="983" depart="983.00" from="23049206" to="4494913#1"/>
    <trip id="984" depart="984.00" from="-4886857" to="117219287"/>
    <trip id="985" depart="985.00" from="-642722362" to="72502886"/>
    <trip id="987" depart="987.00" from="439078383" to="161830357"/>
    <trip id="993" depart="993.00" from="146629091" to="-4604626#1"/>
    <trip id="995" depart="995.00" from="-198655639#1" to="223731411"/>
    <trip id="998" depart="998.00" from="258978977" to="32985723"/>
    <trip id="999" depart="999.00" from="10647117#1" to="-90132971#0"/>
</routes>
