<?xml version="1.0" encoding="UTF-8"?>

<!-- generated on 2021-09-07 15:10:42 by Eclipse SUMO duarouter Version v1_10_0+0551-f581c04ba63
<configuration xmlns:xsi="http://www.w3.org/2001/XMLSchema-instance" xsi:noNamespaceSchemaLocation="http://sumo.dlr.de/xsd/duarouterConfiguration.xsd">

    <input>
        <net-file value="osm.net.xml"/>
        <route-files value="osm.passenger.trips.xml"/>
    </input>

    <output>
        <output-file value="osm.passenger.trips.xml.tmp"/>
        <write-trips value="true"/>
    </output>

    <time>
        <begin value="0"/>
        <end value="1800"/>
    </time>

    <report>
        <no-warnings value="true"/>
        <ignore-errors value="true"/>
        <no-step-log value="true"/>
    </report>

</configuration>
-->

<routes xmlns:xsi="http://www.w3.org/2001/XMLSchema-instance" xsi:noNamespaceSchemaLocation="http://sumo.dlr.de/xsd/routes_file.xsd">
    <vType id="veh_passenger" vClass="passenger"/>
    <trip id="veh0" type="veh_passenger" depart="0.00" departLane="best" from="152447118#2" to="-138624421#25"/>
    <trip id="veh1" type="veh_passenger" depart="1.77" departLane="best" from="-314415495#16" to="-187123053#0"/>
    <trip id="veh2" type="veh_passenger" depart="3.53" departLane="best" from="24152326#1" to="187122892#8"/>
    <trip id="veh3" type="veh_passenger" depart="5.30" departLane="best" from="46150483#1" to="-142575679#2"/>
    <trip id="veh4" type="veh_passenger" depart="7.07" departLane="best" from="-187122892#8" to="142575688#7"/>
    <trip id="veh6" type="veh_passenger" depart="10.60" departLane="best" from="153021549#2" to="142575704#4"/>
    <trip id="veh7" type="veh_passenger" depart="12.37" departLane="best" from="-187123053#2" to="143308562#2"/>
    <trip id="veh8" type="veh_passenger" depart="14.14" departLane="best" from="318210361#1" to="-135777010#17"/>
    <trip id="veh9" type="veh_passenger" depart="15.90" departLane="best" departSpeed="max" from="318210355" to="206579061"/>
    <trip id="veh10" type="veh_passenger" depart="17.67" departLane="best" from="-45875465" to="-143308566#2"/>
    <trip id="veh11" type="veh_passenger" depart="19.44" departLane="best" from="71028777#5" to="-46150481#0"/>
    <trip id="veh12" type="veh_passenger" depart="21.20" departLane="best" from="-142575684#0" to="-142575688#3"/>
    <trip id="veh14" type="veh_passenger" depart="24.74" departLane="best" from="318210360#0" to="23913524#4"/>
    <trip id="veh15" type="veh_passenger" depart="26.51" departLane="best" from="142575700#2" to="800655352"/>
    <trip id="veh16" type="veh_passenger" depart="28.27" departLane="best" from="-81639685#2" to="143308505#2"/>
    <trip id="veh17" type="veh_passenger" depart="30.04" departLane="best" from="320741893" to="149611511#1"/>
    <trip id="veh18" type="veh_passenger" depart="31.81" departLane="best" from="38568630#1" to="143308542#6"/>
    <trip id="veh19" type="veh_passenger" depart="33.57" departLane="best" from="206579057" to="-141968830#0"/>
    <trip id="veh20" type="veh_passenger" depart="35.34" departLane="best" from="-20553068#2" to="-318210371#0"/>
    <trip id="veh21" type="veh_passenger" depart="37.11" departLane="best" from="-142575662#5" to="-20553068#1"/>
    <trip id="veh22" type="veh_passenger" depart="38.87" departLane="best" from="-142575688#8" to="-314415495#3"/>
    <trip id="veh23" type="veh_passenger" depart="40.64" departLane="best" departSpeed="max" from="152447118#0" to="-81096611#0"/>
    <trip id="veh24" type="veh_passenger" depart="42.41" departLane="best" from="-71960633#0" to="-172014854#0"/>
    <trip id="veh25" type="veh_passenger" depart="44.18" departLane="best" from="-31050360#2" to="541676219"/>
    <trip id="veh26" type="veh_passenger" depart="45.94" departLane="best" from="153021549#1" to="146511461#7"/>
    <trip id="veh27" type="veh_passenger" depart="47.71" departLane="best" from="-146511461#4" to="23913524#4"/>
    <trip id="veh29" type="veh_passenger" depart="51.24" departLane="best" departSpeed="max" from="860314547" to="153021549#2"/>
    <trip id="veh30" type="veh_passenger" depart="53.01" departLane="best" from="143308505#4" to="190928926#0"/>
    <trip id="veh31" type="veh_passenger" depart="54.78" departLane="best" departSpeed="max" from="347935096#0" to="292525973"/>
    <trip id="veh32" type="veh_passenger" depart="56.55" departLane="best" from="-206579060#1" to="-138624445#12"/>
    <trip id="veh33" type="veh_passenger" depart="58.31" departLane="best" from="-347935096#6" to="-314415495#11"/>
    <trip id="veh34" type="veh_passenger" depart="60.08" departLane="best" from="-178028204#4" to="670062907#2"/>
    <trip id="veh35" type="veh_passenger" depart="61.85" departLane="best" from="40191606#2" to="-375685718#0"/>
    <trip id="veh36" type="veh_passenger" depart="63.61" departLane="best" from="166142947" to="135777010#2"/>
    <trip id="veh37" type="veh_passenger" depart="65.38" departLane="best" from="52460499#12" to="142575655#6"/>
    <trip id="veh38" type="veh_passenger" depart="67.15" departLane="best" from="-26991766#9" to="-23925119#0"/>
    <trip id="veh39" type="veh_passenger" depart="68.91" departLane="best" from="143308521#4" to="-283317455#1"/>
    <trip id="veh40" type="veh_passenger" depart="70.68" departLane="best" from="143308546#3" to="45875465"/>
    <trip id="veh41" type="veh_passenger" depart="72.45" departLane="best" from="135777010#18" to="-187122892#5"/>
    <trip id="veh42" type="veh_passenger" depart="74.22" departLane="best" from="977639651#1" to="142575690#2"/>
    <trip id="veh43" type="veh_passenger" depart="75.98" departLane="best" from="-142575679#7" to="-141968830#0"/>
    <trip id="veh44" type="veh_passenger" depart="77.75" departLane="best" from="-142575694#4" to="149611514#8"/>
    <trip id="veh45" type="veh_passenger" depart="79.52" departLane="best" from="314415495#7" to="138624445#11"/>
    <trip id="veh46" type="veh_passenger" depart="81.28" departLane="best" from="-142575656#11" to="-895850896"/>
    <trip id="veh47" type="veh_passenger" depart="83.05" departLane="best" from="976351540#1" to="142575699#2"/>
    <trip id="veh48" type="veh_passenger" depart="84.82" departLane="best" departSpeed="max" from="81096611#0" to="382647882"/>
    <trip id="veh49" type="veh_passenger" depart="86.58" departLane="best" from="187122892#7" to="142575704#12"/>
    <trip id="veh50" type="veh_passenger" depart="88.35" departLane="best" from="-31050360#2" to="153021549#2"/>
    <trip id="veh51" type="veh_passenger" depart="90.12" departLane="best" from="-142575695#2" to="138624477#2"/>
    <trip id="veh52" type="veh_passenger" depart="91.89" departLane="best" from="141968844#8" to="679901152#0"/>
    <trip id="veh53" type="veh_passenger" depart="93.65" departLane="best" from="40191606#0" to="-31050360#2"/>
    <trip id="veh54" type="veh_passenger" depart="95.42" departLane="best" from="142575685#1" to="-147859765#8"/>
    <trip id="veh55" type="veh_passenger" depart="97.19" departLane="best" from="52460499#0" to="38915289#0"/>
    <trip id="veh56" type="veh_passenger" depart="98.95" departLane="best" from="-318210378#0" to="153021549#1"/>
    <trip id="veh57" type="veh_passenger" depart="100.72" departLane="best" departSpeed="max" from="145586635" to="-143308562#4"/>
    <trip id="veh58" type="veh_passenger" depart="102.49" departLane="best" from="314415495#11" to="142575699#4"/>
    <trip id="veh59" type="veh_passenger" depart="104.26" departLane="best" from="-12749623" to="-38568627#1"/>
    <trip id="veh60" type="veh_passenger" depart="106.02" departLane="best" from="-135777011#4" to="52243916#1"/>
    <trip id="veh61" type="veh_passenger" depart="107.79" departLane="best" from="-334308447#4" to="-142575656#11"/>
    <trip id="veh62" type="veh_passenger" depart="109.56" departLane="best" from="40191606#3" to="670062912#1"/>
    <trip id="veh63" type="veh_passenger" depart="111.32" departLane="best" from="-142575674#2" to="142575677#1"/>
    <trip id="veh64" type="veh_passenger" depart="113.09" departLane="best" from="-142575657#1" to="259466417#1"/>
    <trip id="veh65" type="veh_passenger" depart="114.86" departLane="best" from="27087586#2" to="-142575704#5"/>
    <trip id="veh66" type="veh_passenger" depart="116.62" departLane="best" from="142575659#2" to="143308493#2"/>
    <trip id="veh67" type="veh_passenger" depart="118.39" departLane="best" from="-283317455#1" to="38915289#5"/>
    <trip id="veh68" type="veh_passenger" depart="120.16" departLane="best" from="138624445#11" to="-178028204#2"/>
    <trip id="veh69" type="veh_passenger" depart="121.93" departLane="best" from="142575701#2" to="23913524#4"/>
    <trip id="veh70" type="veh_passenger" depart="123.69" departLane="best" from="-166142951#1" to="-347935096#4"/>
    <trip id="veh72" type="veh_passenger" depart="127.23" departLane="best" departSpeed="max" from="140964915" to="142575692#6"/>
    <trip id="veh73" type="veh_passenger" depart="128.99" departLane="best" from="-142575704#10" to="-187123053#0"/>
    <trip id="veh74" type="veh_passenger" depart="130.76" departLane="best" from="-38915290#2" to="143308562#10"/>
    <trip id="veh75" type="veh_passenger" depart="132.53" departLane="best" from="-206579062#0" to="-187122892#7"/>
    <trip id="veh76" type="veh_passenger" depart="134.29" departLane="best" from="-142575657#4" to="149611526#1"/>
    <trip id="veh77" type="veh_passenger" depart="136.06" departLane="best" from="-206579060#1" to="46150481#1"/>
    <trip id="veh78" type="veh_passenger" depart="137.83" departLane="best" from="38507369#1" to="-142575661#1"/>
    <trip id="veh79" type="veh_passenger" depart="139.60" departLane="best" from="-23788323" to="187122892#10"/>
    <trip id="veh80" type="veh_passenger" depart="141.36" departLane="best" from="-187122892#11" to="-143308493#1"/>
    <trip id="veh81" type="veh_passenger" depart="143.13" departLane="best" departSpeed="max" from="670062919#0" to="143308542#1"/>
    <trip id="veh82" type="veh_passenger" depart="144.90" departLane="best" from="142575657#9" to="313964778#0"/>
    <trip id="veh83" type="veh_passenger" depart="146.66" departLane="best" from="318210360#0" to="-149611534#1"/>
    <trip id="veh84" type="veh_passenger" depart="148.43" departLane="best" from="-142575688#1" to="138624469#1"/>
    <trip id="veh85" type="veh_passenger" depart="150.20" departLane="best" from="138624445#12" to="142575656#9"/>
    <trip id="veh86" type="veh_passenger" depart="151.97" departLane="best" from="23913526#0" to="187122892#13"/>
    <trip id="veh87" type="veh_passenger" depart="153.73" departLane="best" from="843190005#2" to="-142575688#7"/>
    <trip id="veh88" type="veh_passenger" depart="155.50" departLane="best" from="135777010#5" to="-52081075#3"/>
    <trip id="veh89" type="veh_passenger" depart="157.27" departLane="best" from="38568630#1" to="-23925122#1"/>
    <trip id="veh90" type="veh_passenger" depart="159.03" departLane="best" departSpeed="max" from="-149611514#8" to="141968844#3"/>
    <trip id="veh91" type="veh_passenger" depart="160.80" departLane="best" from="138624438#6" to="-314415495#4"/>
    <trip id="veh92" type="veh_passenger" depart="162.57" departLane="best" from="-23925124#0" to="52081116#13"/>
    <trip id="veh93" type="veh_passenger" depart="164.33" departLane="best" departSpeed="max" from="141968799" to="38507369#0"/>
    <trip id="veh94" type="veh_passenger" depart="166.10" departLane="best" from="142575704#7" to="-141968853#1"/>
    <trip id="veh95" type="veh_passenger" depart="167.87" departLane="best" from="977639652" to="320741894#1"/>
    <trip id="veh96" type="veh_passenger" depart="169.64" departLane="best" departSpeed="max" from="81096611#0" to="52081116#6"/>
    <trip id="veh98" type="veh_passenger" depart="173.17" departLane="best" from="142575674#1" to="-178028204#9"/>
    <trip id="veh99" type="veh_passenger" depart="174.94" departLane="best" from="135777010#2" to="-142575656#12"/>
    <trip id="veh100" type="veh_passenger" depart="176.70" departLane="best" from="-283317455#1" to="31050360#1"/>
    <trip id="veh101" type="veh_passenger" depart="178.47" departLane="best" from="71028777#5" to="96834893"/>
    <trip id="veh102" type="veh_passenger" depart="180.24" departLane="best" from="143308505#2" to="231626692#0"/>
    <trip id="veh103" type="veh_passenger" depart="182.00" departLane="best" from="-143308562#6" to="-318210394#0"/>
    <trip id="veh104" type="veh_passenger" depart="183.77" departLane="best" departSpeed="max" from="81096611#0" to="143308546#0"/>
    <trip id="veh105" type="veh_passenger" depart="185.54" departLane="best" from="142575704#14" to="25771472"/>
    <trip id="veh106" type="veh_passenger" depart="187.31" departLane="best" from="-142575655#10" to="143308549#1"/>
    <trip id="veh107" type="veh_passenger" depart="189.07" departLane="best" from="142575686#4" to="375685718#0"/>
    <trip id="veh108" type="veh_passenger" depart="190.84" departLane="best" from="-143308570" to="70130339#4"/>
    <trip id="veh109" type="veh_passenger" depart="192.61" departLane="best" from="-142575662#5" to="-149611514#6"/>
    <trip id="veh110" type="veh_passenger" depart="194.37" departLane="best" from="143308566#1" to="187122892#6"/>
    <trip id="veh112" type="veh_passenger" depart="197.91" departLane="best" from="46150481#0" to="-23913526#0"/>
    <trip id="veh113" type="veh_passenger" depart="199.68" departLane="best" from="143308566#0" to="149611511#3"/>
    <trip id="veh114" type="veh_passenger" depart="201.44" departLane="best" from="138624426" to="143308549#1"/>
    <trip id="veh115" type="veh_passenger" depart="203.21" departLane="best" from="142575692#7" to="52460499#8"/>
    <trip id="veh117" type="veh_passenger" depart="206.74" departLane="best" from="-23913524#1" to="135777010#2"/>
    <trip id="veh118" type="veh_passenger" depart="208.51" departLane="best" from="180789857#1" to="-334308447#1"/>
    <trip id="veh119" type="veh_passenger" depart="210.28" departLane="best" from="-375685717#1" to="259433181#2"/>
    <trip id="veh120" type="veh_passenger" depart="212.04" departLane="best" from="-142575658#1" to="142575655#5"/>
    <trip id="veh121" type="veh_passenger" depart="213.81" departLane="best" from="977639651#1" to="976351540#1"/>
    <trip id="veh122" type="veh_passenger" depart="215.58" departLane="best" from="-142575658#2" to="-178028204#4"/>
    <trip id="veh123" type="veh_passenger" depart="217.35" departLane="best" from="-283317455#1" to="52460499#5"/>
    <trip id="veh124" type="veh_passenger" depart="219.11" departLane="best" from="412992929#1" to="39969574#2"/>
    <trip id="veh125" type="veh_passenger" depart="220.88" departLane="best" from="-71028777#5" to="-143308601#0"/>
    <trip id="veh127" type="veh_passenger" depart="224.41" departLane="best" from="146511461#0" to="841345129#5"/>
    <trip id="veh128" type="veh_passenger" depart="226.18" departLane="best" from="153021553" to="-135777010#19"/>
    <trip id="veh129" type="veh_passenger" depart="227.95" departLane="best" from="172013798#5" to="578659322#0"/>
    <trip id="veh130" type="veh_passenger" depart="229.71" departLane="best" from="-143308493#2" to="-142575700#3"/>
    <trip id="veh131" type="veh_passenger" depart="231.48" departLane="best" from="-314415495#13" to="145586634"/>
    <trip id="veh132" type="veh_passenger" depart="233.25" departLane="best" from="207086005" to="-169076542"/>
    <trip id="veh133" type="veh_passenger" depart="235.02" departLane="best" from="149611526#1" to="-31050360#2"/>
    <trip id="veh134" type="veh_passenger" depart="236.78" departLane="best" departSpeed="max" from="142575677#0" to="46150481#1"/>
    <trip id="veh135" type="veh_passenger" depart="238.55" departLane="best" from="347935096#3" to="-142575684#4"/>
    <trip id="veh136" type="veh_passenger" depart="240.32" departLane="best" from="138624445#12" to="-314415495#25"/>
    <trip id="veh137" type="veh_passenger" depart="242.08" departLane="best" from="-135777010#11" to="27087586#1"/>
    <trip id="veh138" type="veh_passenger" depart="243.85" departLane="best" departSpeed="max" from="152447118#0" to="-283317455#1"/>
    <trip id="veh139" type="veh_passenger" depart="245.62" departLane="best" from="257072321#0" to="143308505#1"/>
    <trip id="veh140" type="veh_passenger" depart="247.39" departLane="best" from="138624452#0" to="-135777010#20"/>
    <trip id="veh141" type="veh_passenger" depart="249.15" departLane="best" from="-142575659#3" to="40191606#3"/>
    <trip id="veh142" type="veh_passenger" depart="250.92" departLane="best" from="52081075#4" to="142575704#5"/>
    <trip id="veh143" type="veh_passenger" depart="252.69" departLane="best" from="326994261#1" to="143308546#8"/>
    <trip id="veh144" type="veh_passenger" depart="254.45" departLane="best" from="-143308523#8" to="-142575704#3"/>
    <trip id="veh145" type="veh_passenger" depart="256.22" departLane="best" from="-334308447#6" to="46039050#1"/>
    <trip id="veh146" type="veh_passenger" depart="257.99" departLane="best" from="318210353" to="382647882"/>
    <trip id="veh147" type="veh_passenger" depart="259.75" departLane="best" from="48858193#1" to="-172014854#1"/>
    <trip id="veh148" type="veh_passenger" depart="261.52" departLane="best" from="-23925124#0" to="-142575690#7"/>
    <trip id="veh149" type="veh_passenger" depart="263.29" departLane="best" from="314415495#13" to="40191606#3"/>
    <trip id="veh150" type="veh_passenger" depart="265.06" departLane="best" from="135777011#2" to="149611514#0"/>
    <trip id="veh151" type="veh_passenger" depart="266.82" departLane="best" from="-143308562#6" to="52460499#1"/>
    <trip id="veh152" type="veh_passenger" depart="268.59" departLane="best" from="38574183#2" to="8025704#0"/>
    <trip id="veh153" type="veh_passenger" depart="270.36" departLane="best" from="318210363#0" to="40191606#0"/>
    <trip id="veh154" type="veh_passenger" depart="272.12" departLane="best" from="-38568633#0" to="52460499#11"/>
    <trip id="veh155" type="veh_passenger" depart="273.89" departLane="best" departSpeed="max" from="318210355" to="38568627#2"/>
    <trip id="veh156" type="veh_passenger" depart="275.66" departLane="best" from="318210363#0" to="-314415495#10"/>
    <trip id="veh157" type="veh_passenger" depart="277.42" departLane="best" from="314415495#25" to="-142575694#4"/>
    <trip id="veh158" type="veh_passenger" depart="279.19" departLane="best" departSpeed="max" from="40191605#0" to="38159999#8"/>
    <trip id="veh159" type="veh_passenger" depart="280.96" departLane="best" from="142575655#5" to="-334308450#1"/>
    <trip id="veh161" type="veh_passenger" depart="284.49" departLane="best" from="-137534616#1" to="-152447118#0"/>
    <trip id="veh162" type="veh_passenger" depart="286.26" departLane="best" from="802021414#6" to="-314415495#5"/>
    <trip id="veh163" type="veh_passenger" depart="288.03" departLane="best" from="152447118#5" to="135777010#21"/>
    <trip id="veh164" type="veh_passenger" depart="289.79" departLane="best" from="841345129#4" to="142575701#5"/>
    <trip id="veh165" type="veh_passenger" depart="291.56" departLane="best" from="679901152#0" to="-142575700#3"/>
    <trip id="veh166" type="veh_passenger" depart="293.33" departLane="best" departSpeed="max" from="81096611#0" to="-147859765#8"/>
    <trip id="veh167" type="veh_passenger" depart="295.10" departLane="best" from="800655351" to="-314415495#1"/>
    <trip id="veh168" type="veh_passenger" depart="296.86" departLane="best" from="-142575694#2" to="138624469#9"/>
    <trip id="veh169" type="veh_passenger" depart="298.63" departLane="best" from="23913526#0" to="-375685717#0"/>
    <trip id="veh171" type="veh_passenger" depart="302.16" departLane="best" from="-843190005#4" to="143308542#4"/>
    <trip id="veh172" type="veh_passenger" depart="303.93" departLane="best" from="-24214694#5" to="206889086#1"/>
    <trip id="veh173" type="veh_passenger" depart="305.70" departLane="best" from="-135777010#1" to="52081116#5"/>
    <trip id="veh174" type="veh_passenger" depart="307.46" departLane="best" from="142575700#6" to="231626692#1"/>
    <trip id="veh175" type="veh_passenger" depart="309.23" departLane="best" from="257072321#11" to="187122892#13"/>
    <trip id="veh176" type="veh_passenger" depart="311.00" departLane="best" from="-683972873#1" to="-142575659#2"/>
    <trip id="veh177" type="veh_passenger" depart="312.77" departLane="best" from="172014854#0" to="-38915289#4"/>
    <trip id="veh179" type="veh_passenger" depart="316.30" departLane="best" from="-334308447#8" to="137483015#5"/>
    <trip id="veh180" type="veh_passenger" depart="318.07" departLane="best" from="135777010#20" to="-318210386#1"/>
    <trip id="veh181" type="veh_passenger" depart="319.83" departLane="best" from="-142575704#22" to="138624438#4"/>
    <trip id="veh182" type="veh_passenger" depart="321.60" departLane="best" from="683972873#1" to="187122892#9"/>
    <trip id="veh183" type="veh_passenger" depart="323.37" departLane="best" from="52081075#1" to="147859765#4"/>
    <trip id="veh184" type="veh_passenger" depart="325.13" departLane="best" from="-318210380#1" to="142575710#7"/>
    <trip id="veh185" type="veh_passenger" depart="326.90" departLane="best" from="-12749623" to="-318210362"/>
    <trip id="veh186" type="veh_passenger" depart="328.67" departLane="best" from="138624469#12" to="143308546#1"/>
    <trip id="veh187" type="veh_passenger" depart="330.44" departLane="best" from="153021553" to="142575656#4"/>
    <trip id="veh188" type="veh_passenger" depart="332.20" departLane="best" departSpeed="max" from="141968799" to="-178028204#9"/>
    <trip id="veh189" type="veh_passenger" depart="333.97" departLane="best" from="142575658#1" to="46039051#1"/>
    <trip id="veh190" type="veh_passenger" depart="335.74" departLane="best" from="-142575674#1" to="142575692#1"/>
    <trip id="veh191" type="veh_passenger" depart="337.50" departLane="best" from="149611524#2" to="-45875465"/>
    <trip id="veh192" type="veh_passenger" depart="339.27" departLane="best" from="318210374" to="259433181#0"/>
    <trip id="veh193" type="veh_passenger" depart="341.04" departLane="best" from="180789857#13" to="-187123053#0"/>
    <trip id="veh194" type="veh_passenger" depart="342.81" departLane="best" from="-166142947" to="-138624421#21"/>
    <trip id="veh195" type="veh_passenger" depart="344.57" departLane="best" from="375685718#0" to="-142575661#4"/>
    <trip id="veh196" type="veh_passenger" depart="346.34" departLane="best" from="138624421#14" to="149611524#2"/>
    <trip id="veh197" type="veh_passenger" depart="348.11" departLane="best" from="-149611534#1" to="206579057"/>
    <trip id="veh198" type="veh_passenger" depart="349.87" departLane="best" from="142575679#5" to="-23913524#0"/>
    <trip id="veh199" type="veh_passenger" depart="351.64" departLane="best" from="166142951#0" to="-135777010#16"/>
    <trip id="veh200" type="veh_passenger" depart="353.41" departLane="best" from="259433182#4" to="26991766#9"/>
    <trip id="veh201" type="veh_passenger" depart="355.17" departLane="best" from="-142575691#5" to="138624445#5"/>
    <trip id="veh203" type="veh_passenger" depart="358.71" departLane="best" from="142575691#2" to="-141968853#1"/>
    <trip id="veh204" type="veh_passenger" depart="360.48" departLane="best" departSpeed="max" from="-23925122#2" to="347935096#2"/>
    <trip id="veh205" type="veh_passenger" depart="362.24" departLane="best" from="141968913#0" to="314415495#5"/>
    <trip id="veh206" type="veh_passenger" depart="364.01" departLane="best" from="178028204#4" to="841345129#7"/>
    <trip id="veh207" type="veh_passenger" depart="365.78" departLane="best" from="143308566#1" to="670062913#1"/>
    <trip id="veh208" type="veh_passenger" depart="367.54" departLane="best" from="46150483#0" to="147859763#4"/>
    <trip id="veh210" type="veh_passenger" depart="371.08" departLane="best" from="320741894#1" to="142575710#7"/>
    <trip id="veh211" type="veh_passenger" depart="372.85" departLane="best" from="48858191#1" to="257072321#0"/>
    <trip id="veh212" type="veh_passenger" depart="374.61" departLane="best" from="142575659#1" to="-26991766#15"/>
    <trip id="veh213" type="veh_passenger" depart="376.38" departLane="best" departSpeed="max" from="-23925122#2" to="153021549#0"/>
    <trip id="veh214" type="veh_passenger" depart="378.15" departLane="best" from="27087586#2" to="142575693#5"/>
    <trip id="veh215" type="veh_passenger" depart="379.91" departLane="best" from="149611511#4" to="-314415495#21"/>
    <trip id="veh216" type="veh_passenger" depart="381.68" departLane="best" from="-142575661#4" to="-318210361#2"/>
    <trip id="veh217" type="veh_passenger" depart="383.45" departLane="best" from="142575701#5" to="-143308521#12"/>
    <trip id="veh218" type="veh_passenger" depart="385.21" departLane="best" from="-206579062#3" to="20553068#1"/>
    <trip id="veh219" type="veh_passenger" depart="386.98" departLane="best" from="206579061" to="-142575657#1"/>
    <trip id="veh220" type="veh_passenger" depart="388.75" departLane="best" from="135777011#4" to="142575704#21"/>
    <trip id="veh221" type="veh_passenger" depart="390.52" departLane="best" from="138624421#21" to="-169076559#1"/>
    <trip id="veh222" type="veh_passenger" depart="392.28" departLane="best" from="138624438#0" to="46150481#1"/>
    <trip id="veh223" type="veh_passenger" depart="394.05" departLane="best" from="143308546#3" to="20553068#3"/>
    <trip id="veh224" type="veh_passenger" depart="395.82" departLane="best" from="38160000" to="26991766#16"/>
    <trip id="veh225" type="veh_passenger" depart="397.58" departLane="best" from="-841345129#2" to="-135777010#16"/>
    <trip id="veh226" type="veh_passenger" depart="399.35" departLane="best" from="-52460499#12" to="259433182#10"/>
    <trip id="veh227" type="veh_passenger" depart="401.12" departLane="best" from="38159999#3" to="679901152#0"/>
    <trip id="veh228" type="veh_passenger" depart="402.88" departLane="best" from="138624421#9" to="25771472"/>
    <trip id="veh230" type="veh_passenger" depart="406.42" departLane="best" from="-187123053#2" to="-187122892#5"/>
    <trip id="veh231" type="veh_passenger" depart="408.19" departLane="best" departSpeed="max" from="140964915" to="-138624438#0"/>
    <trip id="veh232" type="veh_passenger" depart="409.95" departLane="best" from="-38915289#6" to="190083608#1"/>
    <trip id="veh234" type="veh_passenger" depart="413.49" departLane="best" from="147859765#4" to="-138624421#34"/>
    <trip id="veh235" type="veh_passenger" depart="415.25" departLane="best" from="135777010#1" to="143308523#9"/>
    <trip id="veh236" type="veh_passenger" depart="417.02" departLane="best" from="-138624421#14" to="153021549#4"/>
    <trip id="veh238" type="veh_passenger" depart="420.56" departLane="best" from="-178028204#9" to="-38568632#3"/>
    <trip id="veh239" type="veh_passenger" depart="422.32" departLane="best" from="26991766#3" to="-887919960#4"/>
    <trip id="veh240" type="veh_passenger" depart="424.09" departLane="best" from="259433182#7" to="318210394#0"/>
    <trip id="veh241" type="veh_passenger" depart="425.86" departLane="best" from="-24038573#2" to="-142575677#0"/>
    <trip id="veh242" type="veh_passenger" depart="427.62" departLane="best" from="-135777011#4" to="142575704#16"/>
    <trip id="veh243" type="veh_passenger" depart="429.39" departLane="best" from="977639652" to="-679901152#1"/>
    <trip id="veh245" type="veh_passenger" depart="432.92" departLane="best" from="153021549#4" to="259433182#11"/>
    <trip id="veh247" type="veh_passenger" depart="436.46" departLane="best" from="-137483014#0" to="-143308562#3"/>
    <trip id="veh248" type="veh_passenger" depart="438.23" departLane="best" from="-142575704#20" to="187122892#11"/>
    <trip id="veh249" type="veh_passenger" depart="439.99" departLane="best" from="143308523#2" to="-187122892#2"/>
    <trip id="veh250" type="veh_passenger" depart="441.76" departLane="best" from="204721579#6" to="26991766#3"/>
    <trip id="veh252" type="veh_passenger" depart="445.29" departLane="best" from="259433182#10" to="-142575700#1"/>
    <trip id="veh253" type="veh_passenger" depart="447.06" departLane="best" from="318210377#0" to="71028777#2"/>
    <trip id="veh254" type="veh_passenger" depart="448.83" departLane="best" from="-142575694#1" to="-138624421#29"/>
    <trip id="veh255" type="veh_passenger" depart="450.59" departLane="best" from="-33690600" to="187122892#9"/>
    <trip id="veh256" type="veh_passenger" depart="452.36" departLane="best" from="71960633#0" to="135777010#20"/>
    <trip id="veh257" type="veh_passenger" depart="454.13" departLane="best" from="206579090#0" to="-142575672#2"/>
    <trip id="veh258" type="veh_passenger" depart="455.90" departLane="best" from="190083616" to="149611514#8"/>
    <trip id="veh259" type="veh_passenger" depart="457.66" departLane="best" from="-142575689#1" to="283317455#0"/>
    <trip id="veh261" type="veh_passenger" depart="461.20" departLane="best" from="-142575704#10" to="81639678#1"/>
    <trip id="veh262" type="veh_passenger" depart="462.96" departLane="best" from="314415495#15" to="-543074338"/>
    <trip id="veh263" type="veh_passenger" depart="464.73" departLane="best" from="138624452#2" to="-841345129#1"/>
    <trip id="veh264" type="veh_passenger" depart="466.50" departLane="best" from="142575688#1" to="-52460499#1"/>
    <trip id="veh265" type="veh_passenger" depart="468.27" departLane="best" from="375685717#1" to="318210373#2"/>
    <trip id="veh266" type="veh_passenger" depart="470.03" departLane="best" from="-142575691#2" to="70130339#4"/>
    <trip id="veh267" type="veh_passenger" depart="471.80" departLane="best" departSpeed="max" from="152447118#0" to="318210383#0"/>
    <trip id="veh268" type="veh_passenger" depart="473.57" departLane="best" from="206579062#0" to="138624477#4"/>
    <trip id="veh269" type="veh_passenger" depart="475.33" departLane="best" from="23925124#1" to="71028777#3"/>