<?xml version="1.0" encoding="UTF-8"?>

<!-- generated on Fri Oct  2 09:57:52 2020 by Eclipse SUMO duarouter Version v1_7_0+0414-abba6bd674
<configuration xmlns:xsi="http://www.w3.org/2001/XMLSchema-instance" xsi:noNamespaceSchemaLocation="http://sumo.dlr.de/xsd/duarouterConfiguration.xsd">

    <input>
        <net-file value="osm.net.xml"/>
        <route-files value="osm.passenger.trips.xml"/>
    </input>

    <output>
        <output-file value="routes.rou.xml"/>
        <alternatives-output value="routes.rou.alt.xml"/>
    </output>

    <time>
        <begin value="0"/>
        <end value="1800"/>
    </time>

    <report>
        <no-warnings value="true"/>
        <ignore-errors value="true"/>
        <no-step-log value="true"/>
    </report>

</configuration>
-->

<routes xmlns:xsi="http://www.w3.org/2001/XMLSchema-instance" xsi:noNamespaceSchemaLocation="http://sumo.dlr.de/xsd/routes_file.xsd">
    <vType id="veh_passenger" vClass="passenger"/>
    <vehicle id="veh0" type="veh_passenger" depart="0.00" departLane="best">
        <route edges="172013798#5 172013798#6 38160001#0 -318210367#0 -318210369#1 -318210369#0 -190083608#2 -190083608#1 320741895#0 326994261#0 -190083610#1 -190083610#0 180239858#0 -206579064#3 -206579064#0 206579061 206579062#0 206579062#2 46039051#0 -141968853#4 -141968853#3 -141968853#2 -141968853#1 -141968853#0 141968814#0 141968814#1 141968844#3 141873658#0 141873658#1 -52460499#12 -52460499#11 -52460499#10 -52460499#9 -52460499#8 -52460499#7 -52460499#6 -52460499#5 -52460499#4 -52460499#3 -52460499#2 -52460499#1 -52460499#0 138624452#0 138624469#0 138624469#1 138624469#2 138624469#3 138624469#4 138624469#5 138624469#6 138624469#7 -138624469#7"/>
    </vehicle>
    <vehicle id="veh1" type="veh_passenger" depart="1.44" departLane="best">
        <route edges="-317451316#1 -317451316#0 -283317444#2 -283317444#1 -22928690#1 -22928690#0 -22928688#1 -22928688#0"/>
    </vehicle>
    <vehicle id="veh2" type="veh_passenger" depart="2.88" departLane="best">
        <route edges="23925119#0 23925119#1 40191606#2 40191606#3 40191606#4 40191606#5 414563781 206889086#1 152839448 541676219 318210389#0 670062912#1 81639675#1 81639675#2 81639675#3 81639675#4 670062909#1 670062908#1 670062907#1 670062907#2 670062907#3 670062907#4 670062907#5 670062907#6 670062907#9 677933664#5 677933664#7 143308546#1 143308546#2 143308546#3 143308546#4 143308546#5 143308546#9 143308546#10 143308546#11 670062902#2 670062902#3 143308532#0 143308532#2 143308532#5 143308532#8 143308532#9 -206579062#4 206579062#2"/>
    </vehicle>
    <vehicle id="veh3" type="veh_passenger" depart="4.33" departLane="best">
        <route edges="46039050#4 46039050#7 143308542#0 143308542#1 143308542#3 143308542#4 143308542#6 143308542#7 142575691#0 142575691#1 142575691#2 147859766 147859765#1 147859765#2 147859765#3 -843190005#4 -843190005#3 -843190005#2 -843190005#1 -843190005#0 -142575694#5"/>
    </vehicle>
    <vehicle id="veh4" type="veh_passenger" depart="5.77" departLane="best">
        <route edges="138624477#1 138624477#2 138624477#3 138624477#4 -138624469#0 -138624452#0 52460499#0 52460499#1 52460499#2 52460499#3 52460499#4 52460499#5 52460499#6 52460499#7 52460499#8 52460499#9 52460499#10 52460499#11 52460499#12 141968913#0 141968913#1 141968844#5 141968844#0 141968844#1 141968823#0 141968823#1 141968853#0 141968853#1 141968853#2 141968853#3 141968853#4 46150483#0 46150483#1 206579057 206579058#1 46039050#0 46039050#4 46039050#7 143308542#0 143308542#1 143308542#3 143308542#4 143308542#6 143308542#7 143308542#8 143308542#11 143308542#15 143308542#16 143308542#17 143308542#18 143308542#19 143308552#1 143308549#1 143308549#2 143308549#3 52036180#1 52036180#2 52036180#4 -679901152#1 -45875465 152839428 24152326#0 24152326#1 23925124#0 23925124#1 23925124#2 -166142951#1 -166142951#0 -137534616#4 -137534616#3 -137534616#2 -137534616#1 -137534616#0 23913524#0 23913524#1 149611514#8 149611514#9 20551905#1 20551905#2 20551905#3 20551905#4 20551905#5 20551905#6 -140964907"/>
    </vehicle>
    <vehicle id="veh5" type="veh_passenger" depart="7.21" departLane="best" departSpeed="max">
        <route edges="-22928724 22928674#0 22928674#1 22928674#2 22928674#3 22928674#4 22928674#5 270282145#0 270282145#1 270282145#2 270282145#3 670062919#1 670062919#2 670062919#3 670062919#4 192204854#0 152839434#1 43660343#0 43660343#1 48298278#0 48858192#1 318210388#0 48858193#1 48858193#2 -578917008 -318210371#4 -142575704#21 -142575704#20 -142575704#19 -142575704#18 -142575704#17 -142575704#15 -142575704#14 -142575704#13 -142575704#12 142575704#12"/>
    </vehicle>
    <vehicle id="veh6" type="veh_passenger" depart="8.65" departLane="best" departSpeed="max">
        <route edges="-138624452#1 -138624452#0 52460499#0 52460499#1 52460499#2 52460499#3 52460499#4 52460499#5 52460499#6 52460499#7 52460499#8 52460499#9 52460499#10 52460499#11 52460499#12 141968913#0 141968913#1 141968844#5 141968844#0 141968844#1 141968823#0 141968823#1 141968853#0 141968853#1 141968853#2 141968853#3 141968853#4 46150483#0 46150483#1 206579057 206579058#1 -206579062#4 -206579062#0 -206579061 206579064#0 206579064#1 224769559 190083610#0 -190083610#0"/>
    </vehicle>
    <vehicle id="veh7" type="veh_passenger" depart="10.09" departLane="best">
        <route edges="187122892#2 -187122892#2 -187122892#1 -146511461#4 -146511461#3 -146511461#2 -146511461#1 153021549#0 153021549#1 153021549#2 153021549#3 153021549#4 153021549#6 40191606#0 40191606#2 40191606#3 40191606#4 40191606#5 414563781 206889086#1 152839448 541676219 318210389#0 670062912#1 81639675#1 81639675#2 81639675#3 81639675#4 670062909#1 670062908#1 670062907#1 670062907#2 670062907#3 670062907#4 670062907#5 670062907#6 670062907#9 677933664#5 677933664#7 143308546#1"/>
    </vehicle>
    <vehicle id="veh8" type="veh_passenger" depart="11.54" departLane="best" departSpeed="max">
        <route edges="-22928724 22928674#0 22928674#1 22928674#2 22928674#3 22928674#4 22928674#5 270282145#0 270282145#1 270282145#2 270282145#3 670062919#1 670062919#2 670062919#3 670062919#4 192204854#0 27087586#1 27087586#2 318210374 318210375#1 318210375#2 283006416#0 -99157761#1 -23913524#3 -23913524#2 -23913524#1 -23913524#0 137534616#0 149611534#1"/>
    </vehicle>
    <vehicle id="veh9" type="veh_passenger" depart="12.98" departLane="best">
        <route edges="317451316#4 9859700#6 -283317444#3 -283317444#2 -283317444#1 -283317444#0 -22928633#0 -278500217#5 -278500217#4 -278500217#3 -22928744#1 -22928744#0 270282145#1 270282145#2 270282145#3 670062919#1 670062919#2 670062919#3 670062919#4 192204854#0 152839434#1 43660343#0 43660343#1 48298278#0 48858192#1 318210388#0 48858193#1 48858193#2 -578917008 -318210371#4 -318210371#2 -318210371#1 -318210371#0 -318210362 -318210367#0 -318210369#1 -318210369#0 -190083608#2 -190083608#1 320741895#0 326994261#0 -190083610#1 -190083610#0 180239858#0 -206579064#3 -206579064#0 206579061 206579062#0 206579062#2 -318210380#2 -206579063#0 -135777011#5 -135777011#4"/>
    </vehicle>
    <vehicle id="veh10" type="veh_passenger" depart="14.42" departLane="best">
        <route edges="314415495#8 -314415495#8 -314415495#7 -314415495#6 -314415495#5 -314415495#4 -314415495#3 -314415495#1 -314415495#0 52243916#1 -43660343#1 -43660343#0 10735918#0 10735918#1 39969574#1 670062920 670062921 670062923 670062922 670062924 22762399#1 22928744#0 22928744#1 278500217#3 278500217#4 -22928688#3 -22928688#2 -22928688#1 -22928688#0 22928674#0 22928674#1"/>
    </vehicle>
    <vehicle id="veh11" type="veh_passenger" depart="15.86" departLane="best">
        <route edges="-52081075#4 -52081075#3 -52081075#2 143308542#11 143308542#15 143308542#16 143308542#17 143308542#18 143308542#19 143308552#1 143308549#1 143308549#2 143308549#3 52036180#1 52036180#2 52036180#4 72230304#1 461514282#0 461514282#1 204721578#0 204721578#1 153021549#0 153021549#1 153021549#2 153021549#3 153021549#4 153021549#6 -149611526#1"/>
    </vehicle>
    <vehicle id="veh12" type="veh_passenger" depart="17.30" departLane="best">
        <route edges="683972875#2 -683972875#2 -683972875#0 -143308527#6 -143308527#5 -143308527#1 -143308527#0 -318210378#0 -318210377#0 -31050360#2 670062907#1 670062907#2 670062907#3 670062907#4 670062907#5 670062907#6 670062907#9 677933664#5 677933664#7 143308546#1 143308546#2 143308546#3 143308546#4 143308546#5 143308546#9 143308546#10 143308546#11 670062902#2 670062902#3 143308532#0 143308532#2 143308532#5 143308532#8 143308532#9 46039051#0 -141968853#4 -141968853#3 -141968853#2 -141968853#1 -141968853#0 141968814#0 141968814#1 141968844#3 141873658#0 141873658#1 -52460499#12 -52460499#11 -52460499#10 -52460499#9 -52460499#8 -52460499#7 -52460499#6 -52460499#5 -52460499#4"/>
    </vehicle>
    <vehicle id="veh13" type="veh_passenger" depart="18.74" departLane="best">
        <route edges="-142575700#2 -142575700#1 -142575700#0 -334308447#6 -334308447#4 -334308447#1 -334308447#0 -318210394#0 -52080655#2 670062912#1 81639675#1 81639675#2 81639675#3 81639675#4 -318210361#3 -318210361#0 -314415495#25 -314415495#22 -314415495#21 142575656#0 142575656#1 142575656#3 142575656#4 142575704#6 142575704#7 142575704#8 142575704#10 142575704#11 142575704#12 -142575704#12"/>
    </vehicle>
    <vehicle id="veh14" type="veh_passenger" depart="20.19" departLane="best">
        <route edges="334308450 -334308447#7 -334308447#6 -334308447#4 -334308447#1 -334308447#0 -318210394#0 -52080655#2 52036180#1 52036180#2 52036180#4 72230304#1 461514282#0 461514282#1 204721578#0 204721578#1 153021553#1 318210353 207086005 318210360#0 318210360#1 152839434#1"/>
    </vehicle>
    <vehicle id="veh15" type="veh_passenger" depart="21.63" departLane="best">
        <route edges="317451316#0 -317451316#0 -283317444#2 -283317444#1 -283317444#0 -22928633#0 -278500217#5 -278500217#4 -278500217#3 -22928744#1 -22928744#0 270282145#1 270282145#2 270282145#3 670062919#1 670062919#2 670062919#3 670062919#4 192204854#0 152839434#1 43660343#0 43660343#1 48298278#0 48858192#1 318210388#0 -318210386#2 -81639678#0 -375685717#1 24038573#2"/>
    </vehicle>
    <vehicle id="veh16" type="veh_passenger" depart="23.07" departLane="best">
        <route edges="143308523#8 143308523#9 73058506#1 73058506#2 73058506#3 169076556#0 169076556#1 169076556#2 169076556#3 190083616#0 190083616#1 318210395 -190083618#2 -24214694#5 -24214694#4 -24214694#3 143308590#0 143308542#0 143308542#1 143308542#3 143308542#4 143308542#6 143308542#7 143308542#8 52081075#0 52081075#3 52081075#4 52081075#7 52081075#8 802021414#1"/>
    </vehicle>
    <vehicle id="veh17" type="veh_passenger" depart="24.51" departLane="best">
        <route edges="-98256382#2 -98256382#1 -98256382#0 20551905#5 20551905#6 20551905#0 -149611514#9 -149611514#8 -23913524#1 -23913524#0 137534616#0 137534616#1 137534616#2 137534616#3 137534616#4 166142951#0 166142951#1 149611526#0 149611526#1 40191606#0 40191606#2 40191606#3 40191606#4 40191606#5 414563781 206889086#1 152839448 541676219 318210389#0 670062912#1 81639675#1 81639675#2 81639675#3 81639675#4 143308549#1 143308549#2"/>
    </vehicle>
    <vehicle id="veh18" type="veh_passenger" depart="25.95" departLane="best">
        <route edges="318210373#2 -142575661#3 -142575661#2 -142575661#1 314415495#19 314415495#20 142575656#0 142575656#1 142575656#3 142575656#4 142575656#6 142575656#7 142575656#8 142575656#9 142575656#10 142575656#11 142575656#13 142575656#14 582467484#1 147859763#1 147859763#2 147859763#3 147859763#4 147859763#5 147859763#7 147859763#8 147859763#9 172014854#0 172014854#1 172014854#2 320741895#0 -283317455#1 -190083616#1 -190083616#0 -169076556#3 -169076556#2 -169076556#1 -169076556#0 -81096611#8 -81096611#7 -81096611#6 -81096611#4 -81096611#3 -81096611#2 -169076559#2 169076559#2"/>
    </vehicle>
    <vehicle id="veh19" type="veh_passenger" depart="27.40" departLane="best">
        <route edges="38159999#3 38159999#4 38159999#6 38159999#7 38159999#8 38159999#9 38159999#10 38160000 -172013798#6 -172013798#5 -172013798#4 -147859765#7 -147859765#6 -147859765#3 147859765#3"/>
    </vehicle>
    <vehicle id="veh20" type="veh_passenger" depart="28.84" departLane="best">
        <route edges="221111489 574527503 24038573#0 24038573#1 375685717#1 382647882 81639678#1 48858193#1 48858193#2 -578917008 -318210371#4 -318210371#2 -318210371#1 -318210371#0 142575678#1 38160000 -172013798#6 -172013798#5 -172013798#4 -147859765#7 -147859765#6 -147859765#3 -147859765#2 -147859765#1 -147859765#0 -142575656#14"/>
    </vehicle>
    <vehicle id="veh21" type="veh_passenger" depart="30.28" departLane="best">
        <route edges="-22956997#6 22956997#6 52460499#0 52460499#1 52460499#2 52460499#3 52460499#4 52460499#5 52460499#6 52460499#7 52460499#8 52460499#9 52460499#10 52460499#11 52460499#12 141968913#0 141968913#1 141968844#5 141968844#0 141968844#1 141968823#0 141968823#1 141968853#0 141968853#1 141968853#2 141968853#3 141968853#4 46150483#0 46150483#1 206579057 206579058#1 46039050#0 46039050#4 46039050#7 143308542#0 143308542#1 143308542#3 143308542#4 143308542#6 143308542#7 143308542#8 143308542#11 143308542#15 143308542#16 143308542#17 143308542#18 143308542#19 143308552#1 143308549#1 143308549#2 143308549#3 52080655#0 318210394#0 318210394#2 -334308447#0"/>
    </vehicle>
    <vehicle id="veh22" type="veh_passenger" depart="31.72" departLane="best">
        <route edges="-142575688#6 142575688#6 142575688#7 142575688#8 142575688#10 142575688#11 142575688#12 38507369#0 38507369#1 38507369#3 147859763#7 147859763#8 147859763#9 172014854#0 172014854#1 172014854#2 320741895#0 326994261#0 -190083610#1 -190083610#0 180239858#0 -206579064#3 -206579064#0 206579061 206579062#0 206579062#2 46039051#0 -141968853#4 -141968853#3 -141968853#2 -141968853#1 -141968853#0 141968814#0 141968814#1 141968844#3 141873658#0 141873658#1 -52460499#12 -52460499#11 -52460499#10 -52460499#9 -52460499#8 -52460499#7 -52460499#6 -52460499#5 -52460499#4 -52460499#3 -52460499#2 -52460499#1 -52460499#0 -22956997#6 -22956997#5 -22956997#3 -22956997#1 -22956997#0"/>
    </vehicle>
    <vehicle id="veh23" type="veh_passenger" depart="33.16" departLane="best">
        <route edges="-142575704#2 142575704#2 142575704#3 142575704#4 142575704#6 142575704#7 142575704#8 142575704#10 142575704#11 -26991766#9 -26991766#7 -26991766#6 -26991766#5 -26991766#4 -26991766#3 -26991766#1 172013798#4 172013798#5 172013798#6 38160001#0 -318210367#0 -318210369#1 -318210369#0"/>
    </vehicle>
    <vehicle id="veh24" type="veh_passenger" depart="34.61" departLane="best">
        <route edges="169076556#1 169076556#2 169076556#3 190083616#0 190083616#1 318210395 320741894#0 190083608#1 190083608#2 190083608#3 318210369#1 318210366 318210367#2 318210364#1 318210371#1 318210371#2 318210371#4 578917008 142575667#0 48858191#1 48858191#3 318210383#0 52243916#1 -43660343#1 -43660343#0 10735918#0 10735918#1 39969574#1 670062920 670062921 670062923 670062922 670062924 22762399#1 22928744#0 22928744#1 278500217#3 278500217#4 278500217#5 278500217#6 283317444#0 283317444#1 283317444#2 283317444#3 -22928648#1 -22928648#0 -283317443#2 -283317443#1 -283317443#0 -22928629 -94517926#0"/>
    </vehicle>
    <vehicle id="veh25" type="veh_passenger" depart="36.05" departLane="best">
        <route edges="-841345135#1 841345135#1 -318210378#5 -318210378#4 -318210378#0 -318210377#0 -31050360#2 670062907#1 670062907#2 670062907#3 670062907#4 670062907#5 670062907#6 670062907#9 677933664#5 677933664#7 143308546#1 143308546#2 143308546#3 143308546#4 143308546#5 143308546#9 143308546#10 143308546#11 670062902#2 670062902#3 143308532#0 143308532#2 143308532#5 143308532#8 143308532#9 -318210380#2 -206579063#0"/>
    </vehicle>
    <vehicle id="veh26" type="veh_passenger" depart="37.49" departLane="best">
        <route edges="180789857#9 180789857#10 180789857#11 180789857#12 180789857#13 180789857#14 180789857#15 180789857#16 180789857#17 52081116#11 70130339#3 70130339#4 118262353#2 -38915290#2 -38915290#1 -318210378#9 -318210378#8 -318210378#7 -318210378#5 -318210378#4 -318210378#0 -318210377#0 -31050360#2 143308552#1 143308549#1 143308549#2 143308549#3 52036180#1 52036180#2 52036180#4 72230304#1 461514282#0 461514282#1 204721578#0 204721578#1 153021549#0 153021549#1 153021549#2"/>
    </vehicle>
    <vehicle id="veh27" type="veh_passenger" depart="38.93" departLane="best">
        <route edges="-169076556#1 169076556#1 169076556#2 169076556#3 190083616#0 190083616#1 318210395 320741894#0 190083608#1 190083608#2 190083608#3 318210369#1 318210366 318210367#2 318210364#1 318210371#1 318210371#2 318210371#4 578917008 142575667#0 -318210386#2 -81639678#0 -375685717#1 -24038573#1 -24038573#0 24038573#0"/>
    </vehicle>
    <vehicle id="veh28" type="veh_passenger" depart="40.37" departLane="best">
        <route edges="-152466402#5 152466402#5 152466402#6 152466402#7 152466402#8 152466402#9 152466402#10 152466402#11 152466402#12 152466402#13 152466402#14 152466402#18 152466402#20 22729318#1 375685717#0 375685717#1 382647882 81639678#1 48858191#1 48858191#3 318210383#0 52243916#1 -43660343#1 -43660343#0 10735918#0 10735918#1 27087586#1 27087586#2 318210374 318210375#1 318210375#2 283006416#0 190928927#1 190928927#2 190928927#3 190928927#4 190928927#5 190928927#6 190928927#7 190928927#8 113575152#5 113575152#6 113575152#7 113575152#8 113575152#10 113575152#11 113575152#12 113575152#13 113575152#14"/>
    </vehicle>
    <vehicle id="veh29" type="veh_passenger" depart="41.82" departLane="best">
        <route edges="843190005#0 843190005#1 843190005#2 843190005#3 843190005#4 -147859765#3 -147859765#2 -147859765#1 -147859765#0 582467484#1 147859763#1 147859763#2 147859763#3 147859763#4 147859763#5 147859763#7 147859763#8 147859763#9 172014854#0 172014854#1 172014854#2 320741895#0 -190083618#2 -24214694#5 24214694#5 190083618#0"/>
    </vehicle>
    <vehicle id="veh30" type="veh_passenger" depart="43.26" departLane="best">
        <route edges="143308546#3 143308546#4 143308546#5 143308546#9 143308546#10 143308546#11 143308542#3 143308542#4 143308542#6 143308542#7 142575691#0 142575691#1 142575691#2 147859766 147859765#1 147859765#2 147859765#3 147859765#6 147859765#7 172013798#4 172013798#5 172013798#6 38160001#0 318210367#2 318210364#1 318210371#1 318210371#2 318210371#4 578917008 142575667#0 -318210386#2 -81639678#0 -375685717#1 -375685717#0 -22729318#1 -22729318#0 -152466402#18 -152466402#14 -152466402#13 -152466402#12 -152466402#11 -152466402#10 -152466402#9 -152466402#8 -152466402#7 -152466402#6 -152466402#5 -152466402#4 -152466402#3 -152466402#2 -152466402#1 -152466402#0 -22729317#2 -22729317#1 -22729317#0 22729317#0"/>
    </vehicle>
    <vehicle id="veh31" type="veh_passenger" depart="44.70" departLane="best">
        <route edges="320744674#0 146511465 320744687 206579084 292525975 292525973"/>
    </vehicle>
    <vehicle id="veh32" type="veh_passenger" depart="46.14" departLane="best" departSpeed="max">
        <route edges="-23788323 -137534616#1 -137534616#0 23913524#0 23913524#1 149611514#8 149611514#9 20551905#1 20551905#2 20551905#3 20551905#4 98256382#0 98256382#1 -140964910#3"/>
    </vehicle>
    <vehicle id="veh33" type="veh_passenger" depart="47.58" departLane="best" departSpeed="max">
        <route edges="-38568628#1 -38568628#0 52460499#9 52460499#10 52460499#11 52460499#12 141968913#0 141968913#1 141968844#5 141968844#0 141968844#1 141968823#0 141968823#1 141968853#0 141968853#1 141968853#2 141968853#3 141968853#4 46150483#0 46150483#1 206579057 206579058#1 46039050#0 46039050#4 46039050#7 143308542#0 143308542#1 143308542#3 143308542#4 143308542#6 143308542#7 143308542#8 143308542#11 143308542#15 143308542#16 143308542#17 143308542#18 143308542#19 143308552#1 -318210361#3 -318210361#0 -314415495#25 -314415495#22"/>
    </vehicle>
    <vehicle id="veh34" type="veh_passenger" depart="49.02" departLane="best">
        <route edges="-22928674#3 22928674#3 22928674#4 22928674#5 270282145#0 270282145#1 270282145#2 270282145#3 670062919#1 670062919#2 670062919#3 670062919#4 192204854#0 204721579#1 204721579#2 204721579#3 204721579#4 204721579#5 204721579#6 153021549#0 153021549#1 153021549#2 153021549#3 153021549#4 153021549#6 40191606#0 40191606#2 40191606#3 40191606#4 40191606#5 414563781 206889086#1 152839448 541676219 318210389#0 142575672#0 142575672#3 142575672#4 142575695#0 142575695#1 142575695#2 142575695#3 670062913#1"/>
    </vehicle>
    <vehicle id="veh35" type="veh_passenger" depart="50.47" departLane="best">
        <route edges="40191605#1 40191605#2 40191605#3 40191605#4 40191605#5 800655352 800655351 190928926#0 152839434#1 43660343#0 43660343#1 48298278#0 48858192#1 318210388#0 48858193#1 48858193#2 -578917008 -318210371#4 -318210371#2 -318210371#1 -318210371#0 -318210362 -318210367#0 -318210369#1 -318210369#0 -190083608#2 -190083608#1 320741895#0 326994261#0 -190083610#1 -190083610#0 180239858#0 -206579064#3 -206579064#0 206579061 206579062#0 206579062#2 46039051#0 -141968853#4 -141968853#3 -141968853#2 -141968853#1 -141968853#0 141968814#0 141968814#1 141968844#3 141873658#0 141873658#1 -52460499#12 -52460499#11 -52460499#10 -52460499#9 -52460499#8 -52460499#7 -52460499#6 -52460499#5 -52460499#4 -52460499#3 -52460499#2 -52460499#1 -52460499#0 138624452#0 138624469#0 -138624477#4 -138624477#3 38568633#0 38568633#1 38568633#2 -38568633#2"/>
    </vehicle>
    <vehicle id="veh36" type="veh_passenger" depart="51.91" departLane="best" departSpeed="max">
        <route edges="187123053#0 187123053#1 -152839428 45875465 679901152#0 206889086#1 152839448 541676219 318210389#0 670062912#1 81639675#1 81639675#2 81639675#3 81639675#4 -318210361#3 -318210361#0 -314415495#25 -314415495#22 -314415495#21 -314415495#20 -314415495#19 -314415495#17 -314415495#16 -314415495#15 -314415495#14 -314415495#13 -314415495#12 -314415495#11 -314415495#10 -314415495#9 -314415495#8 -314415495#7 -314415495#6 -314415495#5 -314415495#4 -142575709#1 -142575709#0 137483015#2 137483015#3 137483015#5"/>
    </vehicle>
    <vehicle id="veh37" type="veh_passenger" depart="53.35" departLane="best">
        <route edges="52081075#7 52081075#8 142575655#10 142575655#12 142575655#13 -143308521#13 -143308521#12 -143308521#11 -143308521#9 -143308521#4 -143308521#3 -143308521#2 -143308521#1 142575679#1 142575679#2 142575679#3 142575679#5 142575679#6 142575673#0"/>
    </vehicle>
    <vehicle id="veh38" type="veh_passenger" depart="54.79" departLane="best">
        <route edges="-314415495#17 314415495#17 314415495#19 314415495#20 314415495#21 314415495#22 314415495#24 318210361#0 318210361#1 670062909#1 670062908#1 670062907#1 670062907#2 670062907#3 670062907#4 670062907#5 670062907#6 670062907#9 677933664#5 677933664#7 -24733698#3"/>
    </vehicle>
    <vehicle id="veh39" type="veh_passenger" depart="56.23" departLane="best">
        <route edges="143308549#3 670062912#1 81639675#1 81639675#2 81639675#3 81639675#4 -318210361#3 -318210361#0 -314415495#25 -314415495#22 -314415495#21 -314415495#20 -314415495#19 -314415495#17 -314415495#16 -314415495#15 -314415495#14 -314415495#13 -314415495#12 -314415495#11"/>
    </vehicle>
    <vehicle id="veh40" type="veh_passenger" depart="57.68" departLane="best">
        <route edges="147859763#4 -147859763#4 -147859763#3 -147859763#2 -147859763#1 -147859763#0 147859766 147859765#1 147859765#2 147859765#3 147859765#6 147859765#7 172013798#4 172013798#5 172013798#6 38160001#0 318210367#2 318210364#1 318210371#1 318210371#2 318210371#4 578917008 142575667#0 48858191#1 48858191#3 318210383#0 52243916#1 -43660343#1 43660343#1 48298278#0"/>
    </vehicle>
    <vehicle id="veh41" type="veh_passenger" depart="59.12" departLane="best">
        <route edges="135777010#2 -38915289#6 -38915289#5 -38915289#4 -38915289#1 -38915289#0 142575679#1 142575679#2 142575679#3 142575679#5 142575679#6 142575679#7 142575679#8 142575679#9 -142575699#3 -142575699#2 -142575699#1 -142575699#0 190083610#1 318210363#0 320741894#0 190083608#1 190083608#2 190083608#3 318210369#1 318210366 318210367#2 318210364#1 318210371#1 318210371#2 318210371#4 578917008 142575667#0 48858191#1 48858191#3 318210383#0 52243916#1 -43660343#1 -43660343#0 10735918#0 10735918#1 39969574#1 670062920 670062921 670062923 670062922 670062924 22762399#1 22928744#0 22928744#1 278500217#3 278500217#4 278500217#5 278500217#6 283317444#0 283317444#1 283317444#2 283317444#3 -22928648#1"/>
    </vehicle>
    <vehicle id="veh42" type="veh_passenger" depart="60.56" departLane="best">
        <route edges="9859700#2 9859700#3 9859700#5 9859700#6 -283317444#3 -283317444#2 -283317444#1 -283317444#0 -22928633#0 -278500217#5 -278500217#4 -278500217#3 -22928744#1 -22928744#0 270282145#1 270282145#2 270282145#3 670062919#1 670062919#2 670062919#3 670062919#4 192204854#0 152839434#1 43660343#0 43660343#1 48298278#0 48858192#1 318210388#0 48858193#1 48858193#2 -578917008 -318210371#4 -142575704#21 -142575704#20 142575704#20"/>
    </vehicle>
    <vehicle id="veh43" type="veh_passenger" depart="62.00" departLane="best">
        <route edges="-142575699#2 142575699#2 142575699#3 46039050#4 46039050#7 143308542#0 143308542#1 143308542#3 143308542#4 143308542#6 143308542#7 143308542#8 -142575674#5 -142575674#2 -142575674#1 -142575656#9 -142575656#8 -142575656#7 -142575656#6"/>
    </vehicle>
    <vehicle id="veh44" type="veh_passenger" depart="63.44" departLane="best">
        <route edges="-143308505#1 -142575656#11 -142575656#10 142575674#1 142575674#2 142575674#3 52081075#0 52081075#3 52081075#4 52081075#7 52081075#8 -142575655#7 -142575655#6 -142575655#5 180789857#1 180789857#2"/>
    </vehicle>
    <vehicle id="veh46" type="veh_passenger" depart="66.33" departLane="best">
        <route edges="-142575672#3 -142575672#2 52036180#1 52036180#2 52036180#4 72230304#1 461514282#0 461514282#1 204721578#0 204721578#1 153021553#1 318210353 207086005 318210360#0 318210360#1 27087586#1 27087586#2 318210374 318210375#1 318210375#2 283006416#0 190928927#1 190928927#2 190928927#3 190928927#4 190928927#5 190928927#6 190928927#7 190928927#8 113575152#5"/>
    </vehicle>
    <vehicle id="veh47" type="veh_passenger" depart="67.77" departLane="best" departSpeed="max">
        <route edges="9859700#0 9859700#1 9859700#2 9859700#3 9859700#5 9859700#6 -283317444#3 -283317444#2 -283317444#1 -283317444#0 -22928633#0 -278500217#5 -278500217#4 -278500217#3 -22928744#1 -22928744#0 270282145#1 270282145#2 270282145#3 670062919#1 670062919#2 670062919#3 670062919#4 192204854#0 204721579#1 204721579#2 204721579#3 204721579#4 204721579#5 204721579#6 153021549#0 153021549#1 153021549#2 153021549#3 153021549#4 153021549#6 40191606#0 40191606#2 40191606#3 40191606#4 40191606#5 414563781 206889086#1 152839448 541676219 318210389#0 52080655#0 318210394#0 -683972872 -683972873#1 -683972873#0 -683972875#2 -683972875#0 -143308527#6 -143308527#5 -143308527#1 143308527#1"/>
    </vehicle>
    <vehicle id="veh48" type="veh_passenger" depart="69.21" departLane="best">
        <route edges="800655351 190928926#0 152839434#1 43660343#0 43660343#1 48298278#0 48858192#1 318210388#0 48858193#1 48858193#2 -578917008 -318210371#4 -318210371#2 -318210371#1 -318210371#0 -318210362 -318210367#0 -318210369#1 -318210369#0 -190083608#2 -190083608#1 320741895#0 326994261#0 -190083610#1 -190083610#0 180239858#0 -206579064#3 -206579064#0 206579061 206579062#0 206579062#2 46039051#0 -141968853#4 -141968853#3 -141968853#2 -141968853#1 -141968853#0 141968814#0 141968814#1 141968844#3 141873658#0 141873658#1 -52460499#12 -52460499#11 -52460499#10 -52460499#9 -52460499#8 -52460499#7 -52460499#6 -52460499#5 -52460499#4 -52460499#3 -52460499#2 -52460499#1 -52460499#0 138624452#0 138624469#0 -138624477#4 -138624477#3 38568633#0 38568633#1"/>
    </vehicle>
    <vehicle id="veh49" type="veh_passenger" depart="70.65" departLane="best">
        <route edges="-137483015#3 -137483015#2 -137483015#0 142575709#1 -314415495#3 -314415495#1 -314415495#0 52243916#1 -43660343#1 -43660343#0 10735918#0 10735918#1 204721579#1 204721579#2 204721579#3 204721579#4 204721579#5 204721579#6 153021549#0 153021549#1 153021549#2 153021549#3 153021549#4 153021549#6 -149611526#1 -149611526#0 -166142951#1 -166142951#0 -137534616#4 -137534616#3 -137534616#2 23788323"/>
    </vehicle>
    <vehicle id="veh50" type="veh_passenger" depart="72.10" departLane="best">
        <route edges="204721579#1 204721579#2 204721579#3 204721579#4 204721579#5 204721579#6 153021549#0 153021549#1 153021549#2 153021549#3 153021549#4 153021549#6 40191606#0 40191606#2 40191606#3 40191606#4 40191606#5 414563781 206889086#1 152839448 541676219 318210389#0 670062912#1 81639675#1 81639675#2 81639675#3 81639675#4 670062909#1 670062908#1 670062907#1 670062907#2 670062907#3 670062907#4 670062907#5 670062907#6 670062907#9 143308542#11"/>
    </vehicle>
    <vehicle id="veh51" type="veh_passenger" depart="73.54" departLane="best">
        <route edges="-314415495#22 -314415495#21 -314415495#20 -314415495#19 -314415495#17 -314415495#16 -314415495#15 -314415495#14 -314415495#13 -314415495#12 -314415495#11 -314415495#10 -314415495#9 -314415495#8 -314415495#7 -314415495#6 -314415495#5 -314415495#4 -314415495#3 -314415495#1 -314415495#0 52243916#1 -43660343#1 -43660343#0 10735918#0 10735918#1 27087586#1 800655351 190928926#0"/>
    </vehicle>
    <vehicle id="veh52" type="veh_passenger" depart="74.98" departLane="best">
        <route edges="-143308521#1 142575679#1 142575679#2 142575679#3 142575679#5 142575679#6 142575679#7 142575679#8 142575679#9 143308532#8 143308532#9 46039051#0 -141968853#4 141968853#4"/>
    </vehicle>
    <vehicle id="veh53" type="veh_passenger" depart="76.42" departLane="best">