<?xml version="1.0" encoding="UTF-8"?>
<!-- generated on 2020-10-02 09:54:17.617028 by randomTrips.py v1_7_0+0421-42b131a0fc
  options: -n osm.net.xml <doubleminus>seed 42 <doubleminus>fringe-factor 1 -p 1.054832 -o osm.pedestrian.trips.xml -e 1800 -r osm.pedestrian.rou.xml <doubleminus>vehicle-class pedestrian <doubleminus>persontrips <doubleminus>prefix ped <doubleminus>trip-attributes modes="public" <doubleminus>additional-files osm_stops.add.xml,osm_pt.rou.xml
-->
<routes xmlns:xsi="http://www.w3.org/2001/XMLSchema-instance" xsi:noNamespaceSchemaLocation="http://sumo.dlr.de/xsd/routes_file.xsd">
    <vType id="ped_pedestrian" vClass="pedestrian"/>
    <person id="ped0" depart="0.00" type="ped_pedestrian">
        <personTrip from="312192832#0" to="-138628388" modes="public"/>
    </person>
    <person id="ped1" depart="1.05" type="ped_pedestrian">
        <personTrip from="-54039583#16" to="-36813618" modes="public"/>
    </person>
    <person id="ped2" depart="2.11" type="ped_pedestrian">
        <personTrip from="52081093#1" to="38159999#0" modes="public"/>
    </person>
    <person id="ped3" depart="3.16" type="ped_pedestrian">
        <personTrip from="807955708" to="-152447118#0" modes="public"/>
    </person>
    <person id="ped4" depart="4.22" type="ped_pedestrian">
        <personTrip from="142575674#1" to="-142575656#13" modes="public"/>
    </person>
    <person id="ped5" depart="5.27" type="ped_pedestrian">
        <personTrip from="-354084466#0" to="156071615#4" modes="public"/>
    </person>
    <person id="ped6" depart="6.33" type="ped_pedestrian">
        <personTrip from="-141968830#0" to="-314415495#15" modes="public"/>
    </person>
    <person id="ped7" depart="7.38" type="ped_pedestrian">
        <personTrip from="318210363#0" to="212456637#0" modes="public"/>
    </person>
    <person id="ped8" depart="8.44" type="ped_pedestrian">
        <personTrip from="-356594544" to="24931845#1" modes="public"/>
    </person>
    <person id="ped9" depart="9.49" type="ped_pedestrian">
        <personTrip from="583563966#1" to="-116391654#1" modes="public"/>
    </person>
    <person id="ped10" depart="10.55" type="ped_pedestrian">
        <personTrip from="581636333#1" to="403442277#0" modes="public"/>
    </person>
    <person id="ped11" depart="11.60" type="ped_pedestrian">
        <personTrip from="-806293397" to="-24160821#1" modes="public"/>
    </person>
    <person id="ped12" depart="12.66" type="ped_pedestrian">
        <personTrip from="841345143#0" to="-782084394" modes="public"/>
    </person>
    <person id="ped13" depart="13.71" type="ped_pedestrian">
        <personTrip from="-152709086" to="-169076556#0" modes="public"/>
    </person>
    <person id="ped14" depart="14.77" type="ped_pedestrian">
        <personTrip from="670062907#9" to="261678964" modes="public"/>
    </person>
    <person id="ped15" depart="15.82" type="ped_pedestrian">
        <personTrip from="581636340#1" to="493598967#1" modes="public"/>
    </person>
    <person id="ped16" depart="16.88" type="ped_pedestrian">
        <personTrip from="206579063#1" to="843190013#0" modes="public"/>
    </person>
    <person id="ped17" depart="17.93" type="ped_pedestrian">
        <personTrip from="115466410#0" to="22928648#1" modes="public"/>
    </person>
    <person id="ped18" depart="18.99" type="ped_pedestrian">
        <personTrip from="629992782" to="26991766#4" modes="public"/>
    </person>
    <person id="ped19" depart="20.04" type="ped_pedestrian">
        <personTrip from="70130339#2" to="24152632#1" modes="public"/>
    </person>
    <person id="ped20" depart="21.10" type="ped_pedestrian">
        <personTrip from="408709166#5" to="-142575704#15" modes="public"/>
    </person>
    <person id="ped21" depart="22.15" type="ped_pedestrian">
        <personTrip from="-38568630#1" to="-579614794" modes="public"/>
    </person>
    <person id="ped22" depart="23.21" type="ped_pedestrian">
        <personTrip from="-149611511#4" to="-38574189#5" modes="public"/>
    </person>
    <person id="ped23" depart="24.26" type="ped_pedestrian">
        <personTrip from="-175355420#1" to="-543699380#0" modes="public"/>
    </person>
    <person id="ped24" depart="25.32" type="ped_pedestrian">
        <personTrip from="30978409#0" to="-9859700#2" modes="public"/>
    </person>
    <person id="ped25" depart="26.37" type="ped_pedestrian">
        <personTrip from="114025356#0" to="-320741895#2" modes="public"/>
    </person>
    <person id="ped26" depart="27.43" type="ped_pedestrian">
        <personTrip from="-53529214" to="840221728#9" modes="public"/>
    </person>
    <person id="ped27" depart="28.48" type="ped_pedestrian">
        <personTrip from="317451316#4" to="26814520" modes="public"/>
    </person>
    <person id="ped28" depart="29.54" type="ped_pedestrian">
        <personTrip from="-26444468#0" to="48923038#0" modes="public"/>
    </person>
    <person id="ped29" depart="30.59" type="ped_pedestrian">
        <personTrip from="-257005614#5" to="115921101#1" modes="public"/>
    </person>
    <person id="ped30" depart="31.64" type="ped_pedestrian">
        <personTrip from="843949738#0" to="312192834#1" modes="public"/>
    </person>
    <person id="ped31" depart="32.70" type="ped_pedestrian">
        <personTrip from="22956997#6" to="38574189#11" modes="public"/>
    </person>
    <person id="ped32" depart="33.75" type="ped_pedestrian">
        <personTrip from="647077433" to="578843078#0" modes="public"/>
    </person>
    <person id="ped33" depart="34.81" type="ped_pedestrian">
        <personTrip from="-38568633#1" to="-142575658#0" modes="public"/>
    </person>
    <person id="ped34" depart="35.86" type="ped_pedestrian">
        <personTrip from="-691266822#1" to="-53529255#1" modes="public"/>
    </person>
    <person id="ped35" depart="36.92" type="ped_pedestrian">
        <personTrip from="-321768294#2" to="840221735#4" modes="public"/>
    </person>
    <person id="ped36" depart="37.97" type="ped_pedestrian">
        <personTrip from="721674203" to="-689735906#0" modes="public"/>
    </person>
    <person id="ped37" depart="39.03" type="ped_pedestrian">
        <personTrip from="320153864" to="137534616#2" modes="public"/>
    </person>
    <person id="ped38" depart="40.08" type="ped_pedestrian">
        <personTrip from="840101824#1" to="143308542#6" modes="public"/>
    </person>
    <person id="ped39" depart="41.14" type="ped_pedestrian">
        <personTrip from="-52460499#6" to="-41320604" modes="public"/>
    </person>
    <person id="ped40" depart="42.19" type="ped_pedestrian">
        <personTrip from="23925119#1" to="-52081075#4" modes="public"/>
    </person>
    <person id="ped41" depart="43.25" type="ped_pedestrian">
        <personTrip from="245105008#0" to="81639675#1" modes="public"/>
    </person>
    <person id="ped42" depart="44.30" type="ped_pedestrian">
        <personTrip from="138624421#8" to="-35554225#0" modes="public"/>
    </person>
    <person id="ped43" depart="45.36" type="ped_pedestrian">
        <personTrip from="94517926#3" to="172288750" modes="public"/>
    </person>
    <person id="ped44" depart="46.41" type="ped_pedestrian">
        <personTrip from="-152466402#9" to="-142575704#4" modes="public"/>
    </person>
    <person id="ped45" depart="47.47" type="ped_pedestrian">
        <personTrip from="-190083622" to="283317444#3" modes="public"/>
    </person>
    <person id="ped46" depart="48.52" type="ped_pedestrian">
        <personTrip from="579614792#0" to="142575674#3" modes="public"/>
    </person>
    <person id="ped47" depart="49.58" type="ped_pedestrian">
        <personTrip from="-143308600#2" to="118230292" modes="public"/>
    </person>
    <person id="ped48" depart="50.63" type="ped_pedestrian">
        <personTrip from="92914055#1" to="19211030#4" modes="public"/>
    </person>
    <person id="ped49" depart="51.69" type="ped_pedestrian">
        <personTrip from="843190007#2" to="70130297#1" modes="public"/>
    </person>
    <person id="ped50" depart="52.74" type="ped_pedestrian">
        <personTrip from="-135777010#18" to="45875465" modes="public"/>
    </person>
    <person id="ped51" depart="53.80" type="ped_pedestrian">
        <personTrip from="38568633#0" to="206903549#0" modes="public"/>
    </person>
    <person id="ped52" depart="54.85" type="ped_pedestrian">
        <personTrip from="-53529206#0" to="312192840#1" modes="public"/>
    </person>
    <person id="ped53" depart="55.91" type="ped_pedestrian">
        <personTrip from="-20551912#0" to="142575699#1" modes="public"/>
    </person>
    <person id="ped54" depart="56.96" type="ped_pedestrian">
        <personTrip from="143308523#0" to="840565795#4" modes="public"/>
    </person>
    <person id="ped55" depart="58.02" type="ped_pedestrian">
        <personTrip from="721625615#2" to="-52460499#0" modes="public"/>
    </person>
    <person id="ped56" depart="59.07" type="ped_pedestrian">
        <personTrip from="152709123" to="-26842943" modes="public"/>
    </person>
    <person id="ped57" depart="60.13" type="ped_pedestrian">
        <personTrip from="840101812#1" to="71806638" modes="public"/>
    </person>
    <person id="ped58" depart="61.18" type="ped_pedestrian">
        <personTrip from="-586124041" to="312192825" modes="public"/>
    </person>
    <person id="ped59" depart="62.24" type="ped_pedestrian">
        <personTrip from="26814457#3" to="-24160786#4" modes="public"/>
    </person>
    <person id="ped60" depart="63.29" type="ped_pedestrian">
        <personTrip from="551078943" to="212449534#3" modes="public"/>
    </person>
    <person id="ped61" depart="64.34" type="ped_pedestrian">
        <personTrip from="578843079" to="204721579#3" modes="public"/>
    </person>
    <person id="ped62" depart="65.40" type="ped_pedestrian">
        <personTrip from="-114024903#1" to="-71596031" modes="public"/>
    </person>
    <person id="ped63" depart="66.45" type="ped_pedestrian">
        <personTrip from="-138624445#13" to="840221718#4" modes="public"/>
    </person>
    <person id="ped64" depart="67.51" type="ped_pedestrian">
        <personTrip from="747191446" to="630078122" modes="public"/>
    </person>
    <person id="ped65" depart="68.56" type="ped_pedestrian">
        <personTrip from="-616846342" to="-143308521#1" modes="public"/>
    </person>
    <person id="ped66" depart="69.62" type="ped_pedestrian">
        <personTrip from="723087703#2" to="840221739#20" modes="public"/>
    </person>
    <person id="ped67" depart="70.67" type="ped_pedestrian">
        <personTrip from="-151237857#1" to="149611514#2" modes="public"/>
    </person>
    <person id="ped68" depart="71.73" type="ped_pedestrian">
        <personTrip from="-143482755#3" to="54039583#4" modes="public"/>
    </person>
    <person id="ped69" depart="72.78" type="ped_pedestrian">
        <personTrip from="558307102#1" to="-22928674#2" modes="public"/>
    </person>
    <person id="ped70" depart="73.84" type="ped_pedestrian">
        <personTrip from="143482779#1" to="22729317#2" modes="public"/>
    </person>
    <person id="ped71" depart="74.89" type="ped_pedestrian">
        <personTrip from="-52460499#7" to="71960638#1" modes="public"/>
    </person>
    <person id="ped72" depart="75.95" type="ped_pedestrian">
        <personTrip from="142575679#2" to="-321774743" modes="public"/>
    </person>
    <person id="ped73" depart="77.00" type="ped_pedestrian">
        <personTrip from="212449534#2" to="493598967#2" modes="public"/>
    </person>
    <person id="ped74" depart="78.06" type="ped_pedestrian">
        <personTrip from="-314415495#9" to="-670062930#4" modes="public"/>
    </person>
    <person id="ped75" depart="79.11" type="ped_pedestrian">
        <personTrip from="91218503" to="318210363#0" modes="public"/>
    </person>
    <person id="ped76" depart="80.17" type="ped_pedestrian">
        <personTrip from="142575704#17" to="180789857#16" modes="public"/>
    </person>
    <person id="ped77" depart="81.22" type="ped_pedestrian">
        <personTrip from="-212454162#1" to="-38159999#2" modes="public"/>
    </person>
    <person id="ped78" depart="82.28" type="ped_pedestrian">
        <personTrip from="-799143216" to="24791993#6" modes="public"/>
    </person>
    <person id="ped79" depart="83.33" type="ped_pedestrian">
        <personTrip from="-38569937#0" to="-356594543" modes="public"/>
    </person>
    <person id="ped80" depart="84.39" type="ped_pedestrian">
        <personTrip from="-143482770#1" to="286813444" modes="public"/>
    </person>
    <person id="ped81" depart="85.44" type="ped_pedestrian">
        <personTrip from="-38568633#0" to="822171435#0" modes="public"/>
    </person>
    <person id="ped82" depart="86.50" type="ped_pedestrian">
        <personTrip from="691266822#4" to="-143482770#0" modes="public"/>
    </person>
    <person id="ped83" depart="87.55" type="ped_pedestrian">
        <personTrip from="-40636828#2" to="347935096#7" modes="public"/>
    </person>
    <person id="ped84" depart="88.61" type="ped_pedestrian">
        <personTrip from="-328288211#1" to="-22956997#1" modes="public"/>
    </person>
    <person id="ped85" depart="89.66" type="ped_pedestrian">
        <personTrip from="840221728#2" to="24038694#2" modes="public"/>
    </person>
    <person id="ped86" depart="90.72" type="ped_pedestrian">
        <personTrip from="143482758" to="579202713" modes="public"/>
    </person>
    <person id="ped87" depart="91.77" type="ped_pedestrian">
        <personTrip from="581677647#1" to="-286813448#0" modes="public"/>
    </person>
    <person id="ped88" depart="92.83" type="ped_pedestrian">
        <personTrip from="-169076556#2" to="142575692#5" modes="public"/>
    </person>
    <person id="ped89" depart="93.88" type="ped_pedestrian">
        <personTrip from="142575679#5" to="143308644" modes="public"/>
    </person>
    <person id="ped90" depart="94.93" type="ped_pedestrian">
        <personTrip from="48858193#2" to="360099554" modes="public"/>
    </person>
    <person id="ped91" depart="95.99" type="ped_pedestrian">
        <personTrip from="843832566#0" to="-172014854#0" modes="public"/>
    </person>
    <person id="ped92" depart="97.04" type="ped_pedestrian">
        <personTrip from="138624445#8" to="-801469870" modes="public"/>
    </person>
    <person id="ped93" depart="98.10" type="ped_pedestrian">
        <personTrip from="70130339#2" to="-432929065" modes="public"/>
    </person>
    <person id="ped94" depart="99.15" type="ped_pedestrian">
        <personTrip from="-286813447#1" to="142575744#1" modes="public"/>
    </person>
    <person id="ped95" depart="100.21" type="ped_pedestrian">
        <personTrip from="142575674#1" to="-558203516" modes="public"/>
    </person>
    <person id="ped96" depart="101.26" type="ped_pedestrian">
        <personTrip from="-443454546" to="840221709#9" modes="public"/>
    </person>
    <person id="ped97" depart="102.32" type="ped_pedestrian">
        <personTrip from="142575724#1" to="70130339#0" modes="public"/>
    </person>
    <person id="ped98" depart="103.37" type="ped_pedestrian">
        <personTrip from="22917896#0" to="-142575725#2" modes="public"/>
    </person>
    <person id="ped99" depart="104.43" type="ped_pedestrian">
        <personTrip from="9859700#2" to="630078147" modes="public"/>
    </person>
    <person id="ped100" depart="105.48" type="ped_pedestrian">
        <personTrip from="843190001#7" to="840221714#1" modes="public"/>
    </person>
    <person id="ped101" depart="106.54" type="ped_pedestrian">
        <personTrip from="670062919#3" to="-25944536#0" modes="public"/>
    </person>
    <person id="ped102" depart="107.59" type="ped_pedestrian">
        <personTrip from="149611514#0" to="-328287366#1" modes="public"/>
    </person>
    <person id="ped103" depart="108.65" type="ped_pedestrian">
        <personTrip from="138624445#14" to="-143308521#2" modes="public"/>
    </person>
    <person id="ped104" depart="109.70" type="ped_pedestrian">
        <personTrip from="115466411#1" to="843832573" modes="public"/>
    </person>
    <person id="ped105" depart="110.76" type="ped_pedestrian">
        <personTrip from="-52460499#8" to="579202700#1" modes="public"/>
    </person>
    <person id="ped106" depart="111.81" type="ped_pedestrian">
        <personTrip from="143308523#7" to="142575679#1" modes="public"/>
    </person>
    <person id="ped107" depart="112.87" type="ped_pedestrian">
        <personTrip from="841345143#1" to="92914038#1" modes="public"/>
    </person>
    <person id="ped108" depart="113.92" type="ped_pedestrian">
        <personTrip from="229469715#0" to="45642424" modes="public"/>
    </person>
    <person id="ped109" depart="114.98" type="ped_pedestrian">
        <personTrip from="-24160814#4" to="-586124025" modes="public"/>
    </person>
    <person id="ped110" depart="116.03" type="ped_pedestrian">
        <personTrip from="843190001#5" to="24160786#5" modes="public"/>
    </person>
    <person id="ped111" depart="117.09" type="ped_pedestrian">
        <personTrip from="212453791#1" to="53529255#2" modes="public"/>
    </person>
    <person id="ped112" depart="118.14" type="ped_pedestrian">
        <personTrip from="-143308497#2" to="24214694#3" modes="public"/>
    </person>
    <person id="ped113" depart="119.20" type="ped_pedestrian">
        <personTrip from="152839466#2" to="682679351" modes="public"/>
    </person>
    <person id="ped114" depart="120.25" type="ped_pedestrian">
        <personTrip from="-24160870#1" to="843189993#0" modes="public"/>
    </person>
    <person id="ped115" depart="121.31" type="ped_pedestrian">
        <personTrip from="-149611514#1" to="-283317443#2" modes="public"/>
    </person>
    <person id="ped116" depart="122.36" type="ped_pedestrian">
        <personTrip from="25728863#2" to="36813617#1" modes="public"/>
    </person>
    <person id="ped117" depart="123.42" type="ped_pedestrian">
        <personTrip from="-38915290#2" to="-212453791#4" modes="public"/>
    </person>
    <person id="ped118" depart="124.47" type="ped_pedestrian">
        <personTrip from="799143220" to="-41320579#3" modes="public"/>
    </person>
    <person id="ped119" depart="125.53" type="ped_pedestrian">
        <personTrip from="257131031#0" to="270282145#0" modes="public"/>
    </person>
    <person id="ped120" depart="126.58" type="ped_pedestrian">
        <personTrip from="142575659#3" to="24160870#1" modes="public"/>
    </person>
    <person id="ped121" depart="127.63" type="ped_pedestrian">
        <personTrip from="187123437#1" to="840221727#8" modes="public"/>
    </person>
    <person id="ped122" depart="128.69" type="ped_pedestrian">
        <personTrip from="-318210371#1" to="443454549#2" modes="public"/>
    </person>
    <person id="ped123" depart="129.74" type="ped_pedestrian">
        <personTrip from="-408709154#2" to="137534616#3" modes="public"/>
    </person>
    <person id="ped124" depart="130.80" type="ped_pedestrian">
        <personTrip from="356594544" to="-586124051" modes="public"/>
    </person>
    <person id="ped125" depart="131.85" type="ped_pedestrian">
        <personTrip from="-691266822#5" to="53529557#1" modes="public"/>
    </person>
    <person id="ped126" depart="132.91" type="ped_pedestrian">
        <personTrip from="-145586617#1" to="143308542#19" modes="public"/>
    </person>
    <person id="ped127" depart="133.96" type="ped_pedestrian">
        <personTrip from="98256382#1" to="92914055#1" modes="public"/>
    </person>
    <person id="ped128" depart="135.02" type="ped_pedestrian">
        <personTrip from="-145586617#2" to="-32235088#6" modes="public"/>
    </person>
    <person id="ped129" depart="136.07" type="ped_pedestrian">
        <personTrip from="-52460499#8" to="840221726#5" modes="public"/>
    </person>
    <person id="ped130" depart="137.13" type="ped_pedestrian">
        <personTrip from="767962947" to="747191448" modes="public"/>
    </person>
    <person id="ped131" depart="138.18" type="ped_pedestrian">
        <personTrip from="114024905" to="-241780661" modes="public"/>
    </person>
    <person id="ped132" depart="139.24" type="ped_pedestrian">
        <personTrip from="630078134#0" to="408709165#5" modes="public"/>
    </person>
    <person id="ped133" depart="140.29" type="ped_pedestrian">
        <personTrip from="26816162" to="843832584#1" modes="public"/>
    </person>
    <person id="ped134" depart="141.35" type="ped_pedestrian">
        <personTrip from="318210394#0" to="-125399001#3" modes="public"/>
    </person>
    <person id="ped135" depart="142.40" type="ped_pedestrian">
        <personTrip from="586124063" to="-586124047" modes="public"/>
    </person>
    <person id="ped136" depart="143.46" type="ped_pedestrian">
        <personTrip from="328398947" to="840221731" modes="public"/>
    </person>
    <person id="ped137" depart="144.51" type="ped_pedestrian">
        <personTrip from="-23913524#0" to="-206903549#2" modes="public"/>
    </person>
    <person id="ped138" depart="145.57" type="ped_pedestrian">
        <personTrip from="-187122892#6" to="22928686#0" modes="public"/>
    </person>
    <person id="ped139" depart="146.62" type="ped_pedestrian">
        <personTrip from="-53529919#1" to="26444467#6" modes="public"/>
    </person>
    <person id="ped140" depart="147.68" type="ped_pedestrian">
        <personTrip from="449845657#1" to="-318210367#0" modes="public"/>
    </person>
    <person id="ped141" depart="148.73" type="ped_pedestrian">
        <personTrip from="302943908#1" to="-52460499#12" modes="public"/>
    </person>
    <person id="ped142" depart="149.79" type="ped_pedestrian">
        <personTrip from="149670370#1" to="822171435#0" modes="public"/>
    </person>
    <person id="ped143" depart="150.84" type="ped_pedestrian">
        <personTrip from="670062902#2" to="-152495083" modes="public"/>
    </person>
    <person id="ped144" depart="151.90" type="ped_pedestrian">
        <personTrip from="142575679#5" to="-54039583#7" modes="public"/>
    </person>
    <person id="ped145" depart="152.95" type="ped_pedestrian">
        <personTrip from="-114952399#2" to="578659313#1" modes="public"/>
    </person>
    <person id="ped146" depart="154.01" type="ped_pedestrian">
        <personTrip from="312192780#0" to="-52080655#2" modes="public"/>
    </person>
    <person id="ped147" depart="155.06" type="ped_pedestrian">
        <personTrip from="52460499#6" to="22928643" modes="public"/>
    </person>
    <person id="ped148" depart="156.12" type="ped_pedestrian">
        <personTrip from="142575688#4" to="-133858467#2" modes="public"/>
    </person>
    <person id="ped149" depart="157.17" type="ped_pedestrian">
        <personTrip from="-146511461#5" to="769408288" modes="public"/>
    </person>
    <person id="ped150" depart="158.22" type="ped_pedestrian">
        <personTrip from="822167555" to="212457361#2" modes="public"/>
    </person>
    <person id="ped151" depart="159.28" type="ped_pedestrian">
        <personTrip from="630078138" to="24160835#2" modes="public"/>
    </person>
    <person id="ped152" depart="160.33" type="ped_pedestrian">
        <personTrip from="-24152593#5" to="-22928633#0" modes="public"/>
    </person>
    <person id="ped153" depart="161.39" type="ped_pedestrian">
        <personTrip from="-617755663" to="819249772" modes="public"/>
    </person>
    <person id="ped154" depart="162.44" type="ped_pedestrian">
        <personTrip from="579691010#1" to="69923147" modes="public"/>
    </person>
    <person id="ped155" depart="163.50" type="ped_pedestrian">
        <personTrip from="819249771" to="-320741898#2" modes="public"/>
    </person>
    <person id="ped156" depart="164.55" type="ped_pedestrian">
        <personTrip from="-443066375#0" to="-175357042" modes="public"/>
    </person>
    <person id="ped157" depart="165.61" type="ped_pedestrian">
        <personTrip from="579026237#1" to="777433579" modes="public"/>
    </person>
    <person id="ped158" depart="166.66" type="ped_pedestrian">
        <personTrip from="138624497#1" to="27087434#5" modes="public"/>
    </person>
    <person id="ped159" depart="167.72" type="ped_pedestrian">
        <personTrip from="-24160812#5" to="840221718#9" modes="public"/>
    </person>
    <person id="ped160" depart="168.77" type="ped_pedestrian">
        <personTrip from="702305710#1" to="843190014#9" modes="public"/>
    </person>
    <person id="ped161" depart="169.83" type="ped_pedestrian">
        <personTrip from="586124013" to="767962949" modes="public"/>
    </person>
    <person id="ped162" depart="170.88" type="ped_pedestrian">
        <personTrip from="-138624497#1" to="52081093#1" modes="public"/>
    </person>
    <person id="ped163" depart="171.94" type="ped_pedestrian">
        <personTrip from="-761918919" to="840221720#0" modes="public"/>
    </person>
    <person id="ped164" depart="172.99" type="ped_pedestrian">
        <personTrip from="581569029#1" to="702305702#0" modes="public"/>
    </person>
    <person id="ped165" depart="174.05" type="ped_pedestrian">
        <personTrip from="586124013" to="-53529206#0" modes="public"/>
    </person>
    <person id="ped166" depart="175.10" type="ped_pedestrian">
        <personTrip from="579331796" to="-187123437#0" modes="public"/>
    </person>
    <person id="ped167" depart="176.16" type="ped_pedestrian">
        <personTrip from="71960633#2" to="691266821#0" modes="public"/>
    </person>
    <person id="ped168" depart="177.21" type="ped_pedestrian">
        <personTrip from="-361138488" to="586124060" modes="public"/>
    </person>
    <person id="ped169" depart="178.27" type="ped_pedestrian">
        <personTrip from="143308546#5" to="-586124080" modes="public"/>
    </person>
    <person id="ped170" depart="179.32" type="ped_pedestrian">
        <personTrip from="579691002#3" to="-38568629" modes="public"/>
    </person>
    <person id="ped171" depart="180.38" type="ped_pedestrian">
        <personTrip from="-138624469#9" to="-302944175#0" modes="public"/>
    </person>
    <person id="ped172" depart="181.43" type="ped_pedestrian">
        <personTrip from="-721625615#2" to="702305702#1" modes="public"/>
    </person>
    <person id="ped173" depart="182.49" type="ped_pedestrian">
        <personTrip from="843189998#9" to="-558305348#1" modes="public"/>
    </person>
    <person id="ped174" depart="183.54" type="ped_pedestrian">
        <personTrip from="312192842#2" to="138624421#9" modes="public"/>
    </person>
    <person id="ped175" depart="184.60" type="ped_pedestrian">
        <personTrip from="843544572#5" to="206579063#1" modes="public"/>
    </person>
    <person id="ped176" depart="185.65" type="ped_pedestrian">
        <personTrip from="840221732#1" to="-206903549#2" modes="public"/>
    </person>
    <person id="ped177" depart="186.71" type="ped_pedestrian">
        <personTrip from="843190004#1" to="-26842943" modes="public"/>
    </person>
    <person id="ped178" depart="187.76" type="ped_pedestrian">
        <personTrip from="843189995#3" to="-526210069" modes="public"/>
    </person>
    <person id="ped179" depart="188.81" type="ped_pedestrian">
        <personTrip from="-190083608#1" to="142575699#0" modes="public"/>
    </person>
    <person id="ped180" depart="189.87" type="ped_pedestrian">
        <personTrip from="48858191#3" to="-686320800#1" modes="public"/>
    </person>
    <person id="ped181" depart="190.92" type="ped_pedestrian">
        <personTrip from="26444469#2" to="175355252" modes="public"/>
    </person>
    <person id="ped182" depart="191.98" type="ped_pedestrian">
        <personTrip from="125399002#1" to="24152614#0" modes="public"/>
    </person>
    <person id="ped183" depart="193.03" type="ped_pedestrian">
        <personTrip from="-46771533#1" to="412992929#3" modes="public"/>
    </person>
    <person id="ped184" depart="194.09" type="ped_pedestrian">
        <personTrip from="-114024906" to="840221713#6" modes="public"/>
    </person>
    <person id="ped185" depart="195.14" type="ped_pedestrian">
        <personTrip from="212446298#4" to="458325552#0" modes="public"/>
    </person>
    <person id="ped186" depart="196.20" type="ped_pedestrian">
        <personTrip from="527170115#0" to="35554225#1" modes="public"/>
    </person>
    <person id="ped187" depart="197.25" type="ped_pedestrian">
        <personTrip from="-98256382#2" to="-143482765#0" modes="public"/>
    </person>
    <person id="ped188" depart="198.31" type="ped_pedestrian">
        <personTrip from="329733350#3" to="-722869705#0" modes="public"/>
    </person>
    <person id="ped189" depart="199.36" type="ped_pedestrian">
        <personTrip from="-686320800#2" to="670062912#1" modes="public"/>
    </person>
    <person id="ped190" depart="200.42" type="ped_pedestrian">
        <personTrip from="45875459#0" to="-586124053" modes="public"/>
    </person>
    <person id="ped191" depart="201.47" type="ped_pedestrian">
        <personTrip from="-629595836" to="140162609#0" modes="public"/>
    </person>
    <person id="ped192" depart="202.53" type="ped_pedestrian">
        <personTrip from="138624445#7" to="-586124012" modes="public"/>
    </person>
    <person id="ped193" depart="203.58" type="ped_pedestrian">
        <personTrip from="-22928629" to="142575662#2" modes="public"/>
    </person>
    <person id="ped194" depart="204.64" type="ped_pedestrian">
        <personTrip from="840221733#1" to="38159999#3" modes="public"/>
    </person>
    <person id="ped195" depart="205.69" type="ped_pedestrian">
        <personTrip from="821807404" to="26842943" modes="public"/>
    </person>
    <person id="ped196" depart="206.75" type="ped_pedestrian">
        <personTrip from="-586124056" to="213883661" modes="public"/>
    </person>
    <person id="ped197" depart="207.80" type="ped_pedestrian">
        <personTrip from="-114024903#0" to="-579331796" modes="public"/>