<?xml version="1.0" encoding="UTF-8"?>

<!-- generated on Fri Oct  2 09:54:40 2020 by Eclipse SUMO duarouter Version v1_7_0+0414-abba6bd674
<configuration xmlns:xsi="http://www.w3.org/2001/XMLSchema-instance" xsi:noNamespaceSchemaLocation="http://sumo.dlr.de/xsd/duarouterConfiguration.xsd">

    <input>
        <net-file value="osm.net.xml"/>
        <route-files value="osm.passenger.trips.xml"/>
    </input>

    <output>
        <output-file value="osm.passenger.trips.xml.tmp"/>
        <write-trips value="true"/>
    </output>

    <time>
        <begin value="0"/>
        <end value="1800"/>
    </time>

    <report>
        <no-warnings value="true"/>
        <ignore-errors value="true"/>
        <no-step-log value="true"/>
    </report>

</configuration>
-->

<routes xmlns:xsi="http://www.w3.org/2001/XMLSchema-instance" xsi:noNamespaceSchemaLocation="http://sumo.dlr.de/xsd/routes_file.xsd">
    <vType id="veh_passenger" vClass="passenger"/>
    <trip id="veh0" type="veh_passenger" depart="0.00" departLane="best" from="169076556#0" to="-138624477#0"/>
    <trip id="veh1" type="veh_passenger" depart="1.44" departLane="best" from="-317451315#0" to="-22928674#2"/>
    <trip id="veh2" type="veh_passenger" depart="2.88" departLane="best" from="22956997#3" to="206579061"/>
    <trip id="veh3" type="veh_passenger" depart="4.33" departLane="best" from="43660343#1" to="-142575699#0"/>
    <trip id="veh4" type="veh_passenger" depart="5.77" departLane="best" from="138624469#1" to="-140964910#0"/>
    <trip id="veh5" type="veh_passenger" depart="7.21" departLane="best" departSpeed="max" from="-22928674#5" to="142575704#19"/>
    <trip id="veh6" type="veh_passenger" depart="8.65" departLane="best" departSpeed="max" from="-138624452#1" to="-190083610#0"/>
    <trip id="veh7" type="veh_passenger" depart="10.09" departLane="best" from="180789857#14" to="143308546#4"/>
    <trip id="veh8" type="veh_passenger" depart="11.54" departLane="best" from="-22928688#0" to="149611524#0"/>
    <trip id="veh9" type="veh_passenger" depart="12.98" departLane="best" from="317451315#0" to="-135777011#5"/>
    <trip id="veh10" type="veh_passenger" depart="14.42" departLane="best" from="314415495#24" to="229228933#4"/>
    <trip id="veh11" type="veh_passenger" depart="15.86" departLane="best" from="-5060708#5" to="-149611524#2"/>
    <trip id="veh12" type="veh_passenger" depart="17.30" departLane="best" from="683972873#1" to="-52460499#12"/>
    <trip id="veh13" type="veh_passenger" depart="18.74" departLane="best" from="-142575701#5" to="-142575704#18"/>
    <trip id="veh15" type="veh_passenger" depart="21.63" departLane="best" from="314415495#5" to="23925124#0"/>
    <trip id="veh16" type="veh_passenger" depart="23.07" departLane="best" from="143308523#6" to="802021414#6"/>
    <trip id="veh17" type="veh_passenger" depart="24.51" departLane="best" from="-94517926#0" to="143308562#8"/>
    <trip id="veh18" type="veh_passenger" depart="25.95" departLane="best" from="318210369#1" to="169076556#0"/>
    <trip id="veh19" type="veh_passenger" depart="27.40" departLane="best" from="375685718#0" to="147859763#7"/>
    <trip id="veh21" type="veh_passenger" depart="30.28" departLane="best" from="-229469715#0" to="-318210380#2"/>
    <trip id="veh22" type="veh_passenger" depart="31.72" departLane="best" from="-142575690#3" to="-22928749#2"/>
    <trip id="veh23" type="veh_passenger" depart="33.16" departLane="best" from="-142575704#7" to="-318210361#3"/>
    <trip id="veh24" type="veh_passenger" depart="34.61" departLane="best" from="153021549#6" to="-843190005#4"/>
    <trip id="veh26" type="veh_passenger" depart="37.49" departLane="best" from="-314415495#14" to="670062907#4"/>
    <trip id="veh27" type="veh_passenger" depart="38.93" departLane="best" from="180239858#0" to="153021549#0"/>
    <trip id="veh28" type="veh_passenger" depart="40.37" departLane="best" from="-152839466#3" to="23925122#2"/>
    <trip id="veh29" type="veh_passenger" depart="41.82" departLane="best" from="-152466402#12" to="113575152#13"/>
    <trip id="veh30" type="veh_passenger" depart="43.26" departLane="best" from="841345135#1" to="190083610#0"/>
    <trip id="veh32" type="veh_passenger" depart="46.14" departLane="best" from="318210394#2" to="292525973"/>
    <trip id="veh33" type="veh_passenger" depart="47.58" departLane="best" departSpeed="max" from="-229469715#1" to="-141968799"/>
    <trip id="veh34" type="veh_passenger" depart="49.02" departLane="best" from="-38507369#0" to="-314415495#20"/>
    <trip id="veh35" type="veh_passenger" depart="50.47" departLane="best" from="-229228933#4" to="670062913#1"/>
    <trip id="veh36" type="veh_passenger" depart="51.91" departLane="best" from="38915289#6" to="-38568632#0"/>
    <trip id="veh37" type="veh_passenger" depart="53.35" departLane="best" from="187122892#6" to="137483015#5"/>
    <trip id="veh38" type="veh_passenger" depart="54.79" departLane="best" from="52036180#4" to="142575674#2"/>
    <trip id="veh39" type="veh_passenger" depart="56.23" departLane="best" from="-314415495#1" to="-24214694#5"/>
    <trip id="veh40" type="veh_passenger" depart="57.68" departLane="best" from="143308549#3" to="-314415495#1"/>
    <trip id="veh41" type="veh_passenger" depart="59.12" departLane="best" from="146511461#5" to="48858191#1"/>
    <trip id="veh42" type="veh_passenger" depart="60.56" departLane="best" from="9859700#1" to="142575704#8"/>
    <trip id="veh43" type="veh_passenger" depart="62.00" departLane="best" from="-142575700#3" to="-142575656#8"/>
    <trip id="veh44" type="veh_passenger" depart="63.44" departLane="best" from="-143308521#13" to="180789857#1"/>
    <trip id="veh45" type="veh_passenger" depart="64.89" departLane="best" departSpeed="max" from="292525972" to="141873658#0"/>
    <trip id="veh46" type="veh_passenger" depart="66.33" departLane="best" from="-142575673#1" to="113575152#5"/>
    <trip id="veh47" type="veh_passenger" depart="67.77" departLane="best" departSpeed="max" from="9859700#0" to="143308532#5"/>
    <trip id="veh48" type="veh_passenger" depart="69.21" departLane="best" from="73058506#2" to="38568632#3"/>
    <trip id="veh49" type="veh_passenger" depart="70.65" departLane="best" from="-137534616#0" to="231626692#1"/>
    <trip id="veh50" type="veh_passenger" depart="72.10" departLane="best" from="192204854#0" to="143308542#3"/>
    <trip id="veh51" type="veh_passenger" depart="73.54" departLane="best" from="-314415495#13" to="190083616#0"/>
    <trip id="veh52" type="veh_passenger" depart="74.98" departLane="best" from="-143308521#4" to="141968913#1"/>
    <trip id="veh53" type="veh_passenger" depart="76.42" departLane="best" from="142575656#4" to="670062925"/>
    <trip id="veh54" type="veh_passenger" depart="77.86" departLane="best" from="38915289#5" to="-314415495#10"/>
    <trip id="veh55" type="veh_passenger" depart="79.31" departLane="best" from="142575693#2" to="-152839466#1"/>
    <trip id="veh56" type="veh_passenger" depart="80.75" departLane="best" from="-33690600" to="190083608#2"/>
    <trip id="veh57" type="veh_passenger" depart="82.19" departLane="best" departSpeed="max" from="152447118#0" to="-149611514#6"/>
    <trip id="veh58" type="veh_passenger" depart="83.63" departLane="best" from="259433184#0" to="143308542#7"/>
    <trip id="veh59" type="veh_passenger" depart="85.07" departLane="best" from="27087586#2" to="143308532#9"/>
    <trip id="veh61" type="veh_passenger" depart="87.96" departLane="best" from="-138624432" to="574527503"/>
    <trip id="veh63" type="veh_passenger" depart="90.84" departLane="best" from="-365861042" to="-142575672#2"/>
    <trip id="veh64" type="veh_passenger" depart="92.28" departLane="best" from="-142575695#0" to="142575692#8"/>
    <trip id="veh65" type="veh_passenger" depart="93.72" departLane="best" from="-142575679#8" to="270282145#2"/>
    <trip id="veh67" type="veh_passenger" depart="96.61" departLane="best" from="-314415495#10" to="40191606#3"/>
    <trip id="veh69" type="veh_passenger" depart="99.49" departLane="best" from="143308527#5" to="23925124#0"/>
    <trip id="veh71" type="veh_passenger" depart="102.38" departLane="best" departSpeed="max" from="9859700#0" to="190928927#3"/>
    <trip id="veh72" type="veh_passenger" depart="103.82" departLane="best" from="141968823#1" to="143308521#13"/>
    <trip id="veh73" type="veh_passenger" depart="105.26" departLane="best" from="-143308562#6" to="-22928686#0"/>
    <trip id="veh74" type="veh_passenger" depart="106.70" departLane="best" departSpeed="max" from="-5060708#13" to="149611514#8"/>
    <trip id="veh75" type="veh_passenger" depart="108.14" departLane="best" departSpeed="max" from="-229469715#1" to="-22928633#0"/>
    <trip id="veh76" type="veh_passenger" depart="109.59" departLane="best" from="-142575684#4" to="180789857#9"/>
    <trip id="veh77" type="veh_passenger" depart="111.03" departLane="best" departSpeed="max" from="-229469715#1" to="5060708#13"/>
    <trip id="veh78" type="veh_passenger" depart="112.47" departLane="best" from="35554225#5" to="-142575684#6"/>
    <trip id="veh79" type="veh_passenger" depart="113.91" departLane="best" from="-23925119#0" to="20551912#1"/>
    <trip id="veh81" type="veh_passenger" depart="116.79" departLane="best" departSpeed="max" from="579787986#0" to="146511461#4"/>
    <trip id="veh83" type="veh_passenger" depart="119.68" departLane="best" from="314415495#6" to="-187122892#5"/>
    <trip id="veh84" type="veh_passenger" depart="121.12" departLane="best" from="-142575704#18" to="141968844#5"/>
    <trip id="veh85" type="veh_passenger" depart="122.56" departLane="best" from="138624469#5" to="142575685#0"/>
    <trip id="veh86" type="veh_passenger" depart="124.00" departLane="best" departSpeed="max" from="22928698" to="20553068#3"/>
    <trip id="veh87" type="veh_passenger" depart="125.45" departLane="best" from="81639675#3" to="-142575704#21"/>
    <trip id="veh88" type="veh_passenger" depart="126.89" departLane="best" from="135777010#14" to="-52460499#6"/>
    <trip id="veh89" type="veh_passenger" depart="128.33" departLane="best" from="375685718#0" to="-259433181#2"/>
    <trip id="veh90" type="veh_passenger" depart="129.77" departLane="best" from="-19211030#2" to="142575659#0"/>
    <trip id="veh91" type="veh_passenger" depart="131.21" departLane="best" from="138624469#1" to="-318210362"/>
    <trip id="veh92" type="veh_passenger" depart="132.66" departLane="best" departSpeed="max" from="-26613776#1" to="52460499#11"/>
    <trip id="veh93" type="veh_passenger" depart="134.10" departLane="best" from="141968853#0" to="38568633#2"/>
    <trip id="veh94" type="veh_passenger" depart="135.54" departLane="best" from="143308542#3" to="-142575657#9"/>
    <trip id="veh95" type="veh_passenger" depart="136.98" departLane="best" from="9859700#6" to="334308450"/>
    <trip id="veh96" type="veh_passenger" depart="138.42" departLane="best" from="71960633#2" to="52460499#6"/>
    <trip id="veh97" type="veh_passenger" depart="139.87" departLane="best" from="334308447#1" to="-152466402#11"/>
    <trip id="veh98" type="veh_passenger" depart="141.31" departLane="best" from="142575688#1" to="-221111489"/>
    <trip id="veh99" type="veh_passenger" depart="142.75" departLane="best" from="135777010#1" to="-142575672#3"/>
    <trip id="veh100" type="veh_passenger" depart="144.19" departLane="best" from="-94517926#2" to="841345129#5"/>
    <trip id="veh102" type="veh_passenger" depart="147.07" departLane="best" from="142575656#7" to="141873658#1"/>
    <trip id="veh103" type="veh_passenger" depart="148.52" departLane="best" from="683972873#1" to="98256382#3"/>
    <trip id="veh104" type="veh_passenger" depart="149.96" departLane="best" from="143308546#11" to="231626692#1"/>
    <trip id="veh105" type="veh_passenger" depart="151.40" departLane="best" from="-149611524#0" to="-347935096#4"/>
    <trip id="veh106" type="veh_passenger" depart="152.84" departLane="best" from="71960633#1" to="147859765#1"/>
    <trip id="veh107" type="veh_passenger" depart="154.28" departLane="best" from="143308532#5" to="26613776#1"/>
    <trip id="veh108" type="veh_passenger" depart="155.73" departLane="best" from="-142575661#2" to="149611514#0"/>
    <trip id="veh109" type="veh_passenger" depart="157.17" departLane="best" from="142575693#6" to="38159999#9"/>
    <trip id="veh111" type="veh_passenger" depart="160.05" departLane="best" from="-142575690#6" to="-172013798#5"/>
    <trip id="veh112" type="veh_passenger" depart="161.49" departLane="best" from="149611511#1" to="206579057"/>
    <trip id="veh113" type="veh_passenger" depart="162.94" departLane="best" from="-23913524#0" to="-143308562#3"/>
    <trip id="veh114" type="veh_passenger" depart="164.38" departLane="best" from="414563781" to="-24214694#4"/>
    <trip id="veh115" type="veh_passenger" depart="165.82" departLane="best" from="149611511#0" to="169076556#2"/>
    <trip id="veh116" type="veh_passenger" depart="167.26" departLane="best" from="138624445#17" to="149611511#4"/>
    <trip id="veh117" type="veh_passenger" depart="168.70" departLane="best" from="142575704#8" to="670062907#2"/>
    <trip id="veh118" type="veh_passenger" depart="170.15" departLane="best" from="-22729317#0" to="22956997#3"/>
    <trip id="veh119" type="veh_passenger" depart="171.59" departLane="best" from="-23925122#0" to="137534616#0"/>
    <trip id="veh121" type="veh_passenger" depart="174.47" departLane="best" from="-38507369#3" to="26991766#1"/>
    <trip id="veh122" type="veh_passenger" depart="175.91" departLane="best" from="-142575687#2" to="142575674#1"/>
    <trip id="veh123" type="veh_passenger" depart="177.36" departLane="best" from="9859700#3" to="98256382#3"/>
    <trip id="veh125" type="veh_passenger" depart="180.24" departLane="best" from="-314415495#10" to="670062902#3"/>
    <trip id="veh126" type="veh_passenger" depart="181.68" departLane="best" from="40191605#4" to="40191607#2"/>
    <trip id="veh128" type="veh_passenger" depart="184.56" departLane="best" from="318210374" to="22928674#5"/>
    <trip id="veh129" type="veh_passenger" depart="186.01" departLane="best" from="152447118#6" to="843190005#0"/>
    <trip id="veh130" type="veh_passenger" depart="187.45" departLane="best" from="187122892#2" to="-137483015#0"/>
    <trip id="veh131" type="veh_passenger" depart="188.89" departLane="best" departSpeed="max" from="318210355" to="-35554225#0"/>
    <trip id="veh132" type="veh_passenger" depart="190.33" departLane="best" from="190083610#0" to="670062907#9"/>
    <trip id="veh134" type="veh_passenger" depart="193.22" departLane="best" from="-143308505#2" to="143308566#1"/>
    <trip id="veh135" type="veh_passenger" depart="194.66" departLane="best" from="-314415495#5" to="152466402#9"/>
    <trip id="veh136" type="veh_passenger" depart="196.10" departLane="best" from="153021549#4" to="-314415495#11"/>
    <trip id="veh137" type="veh_passenger" depart="197.54" departLane="best" from="142575688#4" to="5060708#13"/>
    <trip id="veh138" type="veh_passenger" depart="198.98" departLane="best" from="320744674#0" to="-142575701#6"/>
    <trip id="veh140" type="veh_passenger" depart="201.87" departLane="best" departSpeed="max" from="-135777010#18" to="283317444#1"/>
    <trip id="veh142" type="veh_passenger" depart="204.75" departLane="best" from="23925119#0" to="143308562#6"/>
    <trip id="veh143" type="veh_passenger" depart="206.19" departLane="best" from="-142575688#2" to="414563781"/>
    <trip id="veh144" type="veh_passenger" depart="207.64" departLane="best" from="48858192#1" to="143308546#5"/>
    <trip id="veh145" type="veh_passenger" depart="209.08" departLane="best" from="318210375#1" to="149611511#1"/>
    <trip id="veh146" type="veh_passenger" depart="210.52" departLane="best" from="-149611511#1" to="-144909690#0"/>
    <trip id="veh148" type="veh_passenger" depart="213.40" departLane="best" departSpeed="max" from="-26613776#1" to="-142575710#1"/>
    <trip id="veh149" type="veh_passenger" depart="214.84" departLane="best" from="278500217#3" to="414563781"/>
    <trip id="veh150" type="veh_passenger" depart="216.29" departLane="best" from="135777011#0" to="169076559#1"/>
    <trip id="veh151" type="veh_passenger" depart="217.73" departLane="best" from="-149611524#0" to="578659321#0"/>
    <trip id="veh152" type="veh_passenger" depart="219.17" departLane="best" from="38159999#3" to="81096611#6"/>
    <trip id="veh153" type="veh_passenger" depart="220.61" departLane="best" from="317451316#1" to="408709154#3"/>
    <trip id="veh154" type="veh_passenger" depart="222.05" departLane="best" departSpeed="max" from="-138624452#1" to="24733698#3"/>
    <trip id="veh155" type="veh_passenger" depart="223.50" departLane="best" departSpeed="max" from="-46150481#3" to="578917008"/>
    <trip id="veh156" type="veh_passenger" depart="224.94" departLane="best" from="314415495#15" to="38915289#6"/>
    <trip id="veh157" type="veh_passenger" depart="226.38" departLane="best" from="317451316#1" to="-314415495#17"/>
    <trip id="veh158" type="veh_passenger" depart="227.82" departLane="best" from="283317444#3" to="-143308521#1"/>
    <trip id="veh159" type="veh_passenger" depart="229.26" departLane="best" from="38568632#0" to="38568628#1"/>
    <trip id="veh160" type="veh_passenger" depart="230.71" departLane="best" from="-22928690#1" to="318210371#4"/>
    <trip id="veh161" type="veh_passenger" depart="232.15" departLane="best" from="142575659#1" to="-375685718#0"/>
    <trip id="veh163" type="veh_passenger" depart="235.03" departLane="best" from="-138624445#9" to="-187123053#0"/>
    <trip id="veh164" type="veh_passenger" depart="236.47" departLane="best" from="-45875465" to="38915289#6"/>
    <trip id="veh165" type="veh_passenger" depart="237.92" departLane="best" from="71028777#0" to="-318210362"/>
    <trip id="veh166" type="veh_passenger" depart="239.36" departLane="best" from="169076559#1" to="138624421#14"/>
    <trip id="veh167" type="veh_passenger" depart="240.80" departLane="best" from="81096611#6" to="143308542#19"/>
    <trip id="veh168" type="veh_passenger" depart="242.24" departLane="best" from="670062907#1" to="-143308523#7"/>
    <trip id="veh169" type="veh_passenger" depart="243.68" departLane="best" from="73058506#1" to="-152839466#1"/>
    <trip id="veh170" type="veh_passenger" depart="245.12" departLane="best" departSpeed="max" from="70130339#0" to="-314415495#14"/>
    <trip id="veh171" type="veh_passenger" depart="246.57" departLane="best" from="-143308521#1" to="141968913#1"/>
    <trip id="veh172" type="veh_passenger" depart="248.01" departLane="best" departSpeed="max" from="22928698" to="-38568630#0"/>
    <trip id="veh173" type="veh_passenger" depart="249.45" departLane="best" from="151237878#1" to="142575710#8"/>
    <trip id="veh174" type="veh_passenger" depart="250.89" departLane="best" departSpeed="max" from="-98256382#3" to="147859763#4"/>
    <trip id="veh175" type="veh_passenger" depart="252.33" departLane="best" from="-278500217#1" to="22928724"/>
    <trip id="veh176" type="veh_passenger" depart="253.78" departLane="best" from="-135777010#11" to="52460499#5"/>
    <trip id="veh177" type="veh_passenger" depart="255.22" departLane="best" from="143308527#0" to="231626692#1"/>
    <trip id="veh178" type="veh_passenger" depart="256.66" departLane="best" from="190083610#1" to="-5060708#7"/>
    <trip id="veh179" type="veh_passenger" depart="258.10" departLane="best" from="-38159999#8" to="38159999#0"/>
    <trip id="veh180" type="veh_passenger" depart="259.54" departLane="best" from="22928643" to="-35554225#0"/>
    <trip id="veh181" type="veh_passenger" depart="260.99" departLane="best" from="-375685718#0" to="138624452#0"/>
    <trip id="veh182" type="veh_passenger" depart="262.43" departLane="best" from="135777010#14" to="-347935096#2"/>
    <trip id="veh184" type="veh_passenger" depart="265.31" departLane="best" from="670062907#2" to="206579062#0"/>
    <trip id="veh185" type="veh_passenger" depart="266.75" departLane="best" from="48858191#1" to="153021553#1"/>
    <trip id="veh186" type="veh_passenger" depart="268.20" departLane="best" from="-347935096#4" to="143308549#2"/>
    <trip id="veh187" type="veh_passenger" depart="269.64" departLane="best" from="-135777010#0" to="-318210378#4"/>
    <trip id="veh188" type="veh_passenger" depart="271.08" departLane="best" from="140964910#1" to="147859765#3"/>
    <trip id="veh189" type="veh_passenger" depart="272.52" departLane="best" from="187122892#3" to="142575684#0"/>
    <trip id="veh190" type="veh_passenger" depart="273.96" departLane="best" from="141968844#4" to="-221111489"/>
    <trip id="veh191" type="veh_passenger" depart="275.41" departLane="best" from="142575677#1" to="48858193#2"/>
    <trip id="veh193" type="veh_passenger" depart="278.29" departLane="best" from="153021549#2" to="-52460499#1"/>
    <trip id="veh194" type="veh_passenger" depart="279.73" departLane="best" departSpeed="max" from="318210355" to="26814968#1"/>
    <trip id="veh195" type="veh_passenger" depart="281.17" departLane="best" from="190928927#3" to="-22928686#0"/>
    <trip id="veh196" type="veh_passenger" depart="282.61" departLane="best" from="-206579063#0" to="-138624469#8"/>
    <trip id="veh197" type="veh_passenger" depart="284.06" departLane="best" from="-24038573#2" to="142575688#4"/>
    <trip id="veh198" type="veh_passenger" depart="285.50" departLane="best" from="334308447#6" to="-142575688#1"/>
    <trip id="veh199" type="veh_passenger" depart="286.94" departLane="best" from="138624421#28" to="180789857#2"/>
    <trip id="veh200" type="veh_passenger" depart="288.38" departLane="best" departSpeed="max" from="-20553068#3" to="229228933#1"/>
    <trip id="veh201" type="veh_passenger" depart="289.82" departLane="best" from="142575690#7" to="-24038573#0"/>
    <trip id="veh202" type="veh_passenger" depart="291.27" departLane="best" from="187122892#7" to="-135777010#9"/>
    <trip id="veh203" type="veh_passenger" depart="292.71" departLane="best" departSpeed="max" from="25382187" to="283317443#6"/>
    <trip id="veh204" type="veh_passenger" depart="294.15" departLane="best" from="-143308505#1" to="141968814#0"/>
    <trip id="veh205" type="veh_passenger" depart="295.59" departLane="best" from="-169076559#2" to="683972873#1"/>
    <trip id="veh206" type="veh_passenger" depart="297.03" departLane="best" from="142575704#17" to="-142575657#9"/>
    <trip id="veh207" type="veh_passenger" depart="298.48" departLane="best" departSpeed="max" from="-26613776#1" to="38159999#0"/>
    <trip id="veh208" type="veh_passenger" depart="299.92" departLane="best" from="142575657#1" to="317451316#0"/>
    <trip id="veh209" type="veh_passenger" depart="301.36" departLane="best" from="190928927#1" to="843190005#2"/>
    <trip id="veh210" type="veh_passenger" depart="302.80" departLane="best" from="149611511#1" to="670062922"/>
    <trip id="veh211" type="veh_passenger" depart="304.24" departLane="best" from="43660343#0" to="153021549#3"/>
    <trip id="veh212" type="veh_passenger" depart="305.69" departLane="best" from="22928629" to="142575704#18"/>
    <trip id="veh213" type="veh_passenger" depart="307.13" departLane="best" from="318210371#2" to="143308549#2"/>
    <trip id="veh214" type="veh_passenger" depart="308.57" departLane="best" from="46150481#0" to="259433182#5"/>
    <trip id="veh215" type="veh_passenger" depart="310.01" departLane="best" from="142575679#1" to="-283317444#2"/>
    <trip id="veh216" type="veh_passenger" depart="311.45" departLane="best" from="-24733698#1" to="187123437#1"/>
    <trip id="veh218" type="veh_passenger" depart="314.34" departLane="best" from="152839434#1" to="-317451316#2"/>
    <trip id="veh219" type="veh_passenger" depart="315.78" departLane="best" from="-142575688#6" to="-318210373#2"/>
    <trip id="veh220" type="veh_passenger" depart="317.22" departLane="best" from="-314415495#3" to="-38915290#2"/>
    <trip id="veh221" type="veh_passenger" depart="318.66" departLane="best" from="143308527#7" to="-146511461#7"/>
    <trip id="veh223" type="veh_passenger" depart="321.55" departLane="best" from="207086005" to="-142575677#0"/>
    <trip id="veh224" type="veh_passenger" depart="322.99" departLane="best" from="137483015#2" to="143308546#11"/>
    <trip id="veh225" type="veh_passenger" depart="324.43" departLane="best" from="138624421#6" to="-20553068#2"/>
    <trip id="veh226" type="veh_passenger" depart="325.87" departLane="best" from="138624445#4" to="5060708#13"/>
    <trip id="veh227" type="veh_passenger" depart="327.31" departLane="best" from="146511461#4" to="22762399#1"/>
    <trip id="veh228" type="veh_passenger" depart="328.76" departLane="best" departSpeed="max" from="35554225#0" to="278500217#4"/>
    <trip id="veh229" type="veh_passenger" depart="330.20" departLane="best" departSpeed="max" from="-94517926#5" to="-135777010#9"/>
    <trip id="veh230" type="veh_passenger" depart="331.64" departLane="best" from="-52460499#9" to="26991766#14"/>
    <trip id="veh231" type="veh_passenger" depart="333.08" departLane="best" from="347935096#4" to="670062925"/>
    <trip id="veh232" type="veh_passenger" depart="334.52" departLane="best" from="138624445#16" to="26613776#0"/>
    <trip id="veh233" type="veh_passenger" depart="335.97" departLane="best" from="143308542#11" to="152466402#6"/>
    <trip id="veh234" type="veh_passenger" depart="337.41" departLane="best" from="-22928688#1" to="-22928629"/>
    <trip id="veh235" type="veh_passenger" depart="338.85" departLane="best" from="141968810#0" to="-140964907"/>
    <trip id="veh236" type="veh_passenger" depart="340.29" departLane="best" departSpeed="max" from="-5060708#13" to="206579063#1"/>
    <trip id="veh237" type="veh_passenger" depart="341.73" departLane="best" from="135777010#4" to="-152466402#0"/>
    <trip id="veh238" type="veh_passenger" depart="343.17" departLane="best" from="142575672#3" to="-144909690#0"/>
    <trip id="veh241" type="veh_passenger" depart="347.50" departLane="best" from="-138624469#10" to="190083618#0"/>
    <trip id="veh242" type="veh_passenger" depart="348.94" departLane="best" from="-146511461#10" to="142575679#2"/>
    <trip id="veh243" type="veh_passenger" depart="350.38" departLane="best" from="-142575656#8" to="113575152#13"/>
    <trip id="veh244" type="veh_passenger" depart="351.83" departLane="best" from="-229228933#5" to="-5060708#11"/>
    <trip id="veh245" type="veh_passenger" depart="353.27" departLane="best" from="259433182#5" to="113575152#13"/>
    <trip id="veh246" type="veh_passenger" depart="354.71" departLane="best" departSpeed="max" from="25382187" to="320744674#0"/>
    <trip id="veh247" type="veh_passenger" depart="356.15" departLane="best" from="-138624432" to="143308542#7"/>
    <trip id="veh248" type="veh_passenger" depart="357.59" departLane="best" from="99157761#0" to="-73058506#2"/>
    <trip id="veh249" type="veh_passenger" depart="359.04" departLane="best" from="180789857#15" to="292525974"/>
    <trip id="veh250" type="veh_passenger" depart="360.48" departLane="best" from="180789857#7" to="26991766#15"/>
    <trip id="veh251" type="veh_passenger" depart="361.92" departLane="best" from="670062919#4" to="-190083610#1"/>
    <trip id="veh252" type="veh_passenger" depart="363.36" departLane="best" from="-138624445#11" to="-149611514#5"/>
    <trip id="veh253" type="veh_passenger" depart="364.80" departLane="best" from="-144909690#1" to="20553015#0"/>
    <trip id="veh254" type="veh_passenger" depart="366.25" departLane="best" from="143308562#4" to="-229228933#3"/>
    <trip id="veh255" type="veh_passenger" depart="367.69" departLane="best" from="206579061" to="283006416#0"/>
    <trip id="veh256" type="veh_passenger" depart="369.13" departLane="best" from="-152466402#7" to="152839466#1"/>
    <trip id="veh257" type="veh_passenger" depart="370.57" departLane="best" from="24214694#3" to="-143308523#5"/>
    <trip id="veh258" type="veh_passenger" depart="372.01" departLane="best" departSpeed="max" from="318210355" to="71028777#1"/>
    <trip id="veh259" type="veh_passenger" depart="373.45" departLane="best" from="-143308505#4" to="-138624477#0"/>
    <trip id="veh260" type="veh_passenger" depart="374.90" departLane="best" from="-38159999#3" to="206579062#0"/>
    <trip id="veh261" type="veh_passenger" depart="376.34" departLane="best" from="683972875#2" to="137534616#1"/>
    <trip id="veh262" type="veh_passenger" depart="377.78" departLane="best" from="22762377-AddedOffRampEdge" to="-142575688#5"/>
    <trip id="veh263" type="veh_passenger" depart="379.22" departLane="best" from="204721579#6" to="180239858#0"/>
    <trip id="veh264" type="veh_passenger" depart="380.66" departLane="best" from="-142575709#0" to="283317444#3"/>
    <trip id="veh265" type="veh_passenger" depart="382.11" departLane="best" from="334308447#7" to="152466402#18"/>
    <trip id="veh266" type="veh_passenger" depart="383.55" departLane="best" from="-143308562#6" to="841345129#1"/>
    <trip id="veh267" type="veh_passenger" depart="384.99" departLane="best" from="283006416#0" to="-71028777#2"/>
    <trip id="veh268" type="veh_passenger" depart="386.43" departLane="best" departSpeed="max" from="140964907" to="-9859700#0"/>
    <trip id="veh269" type="veh_passenger" depart="387.87" departLane="best" from="142575694#5" to="-574527503"/>
    <trip id="veh270" type="veh_passenger" depart="389.32" departLane="best" from="334308447#6" to="318210378#4"/>
    <trip id="veh272" type="veh_passenger" depart="392.20" departLane="best" from="153021549#6" to="318210395"/>
    <trip id="veh274" type="veh_passenger" depart="395.08" departLane="best" departSpeed="max" from="22956997#0" to="71028777#4"/>
    <trip id="veh275" type="veh_passenger" depart="396.53" departLane="best" from="-314415495#21" to="318210360#1"/>
    <trip id="veh276" type="veh_passenger" depart="397.97" departLane="best" from="143308527#0" to="142575692#0"/>