<?xml version="1.0" encoding="UTF-8"?>

<!-- generated on 05/02/19 10:20:26 by Eclipse SUMO netgenerate Version v1_0_1+0593-c54b143026
<configuration xmlns:xsi="http://www.w3.org/2001/XMLSchema-instance" xsi:noNamespaceSchemaLocation="http://sumo.dlr.de/xsd/netgenerateConfiguration.xsd">

    <random_network>
        <rand value="true"/>
        <rand.iterations value="100"/>
    </random_network>

    <output>
        <output-file value="random.net.xml"/>
    </output>

</configuration>
-->

<net version="1.3" junctionCornerDetail="5" limitTurnSpeed="5.50" xmlns:xsi="http://www.w3.org/2001/XMLSchema-instance" xsi:noNamespaceSchemaLocation="http://sumo.dlr.de/xsd/net_file.xsd">

    <location netOffset="882.72,1528.66" convBoundary="0.00,0.00,1795.49,2428.02" origBoundary="-882.72,-1528.66,912.78,899.36" projParameter="!"/>

    <edge id=":1_0" function="internal">
        <lane id=":1_0_0" index="0" speed="5.98" length="9.08" shape="881.25,1536.95 880.84,1534.38 879.71,1532.81 877.86,1532.23 875.29,1532.64"/>
    </edge>
    <edge id=":1_1" function="internal">
        <lane id=":1_1_0" index="0" speed="13.89" length="14.86" shape="881.25,1536.95 881.11,1533.23 880.80,1529.54 880.28,1525.88 879.53,1522.23"/>
    </edge>
    <edge id=":1_2" function="internal">
        <lane id=":1_2_0" index="0" speed="8.09" length="6.00" shape="881.25,1536.95 881.75,1532.62 882.52,1531.18"/>
    </edge>
    <edge id=":1_3" function="internal">
        <lane id=":1_3_0" index="0" speed="3.65" length="2.34" shape="881.25,1536.95 882.03,1535.74 882.82,1535.33"/>
    </edge>
    <edge id=":1_16" function="internal">
        <lane id=":1_16_0" index="0" speed="8.09" length="9.12" shape="882.52,1531.18 883.39,1529.57 886.20,1527.81 890.15,1527.34"/>
    </edge>
    <edge id=":1_17" function="internal">
        <lane id=":1_17_0" index="0" speed="3.65" length="2.34" shape="882.82,1535.33 883.63,1535.72 884.45,1536.90"/>
    </edge>
    <edge id=":1_4" function="internal">
        <lane id=":1_4_0" index="0" speed="6.62" length="9.76" shape="890.03,1530.54 887.55,1530.85 885.79,1532.02 884.76,1534.04 884.45,1536.90"/>
    </edge>
    <edge id=":1_5" function="internal">
        <lane id=":1_5_0" index="0" speed="13.89" length="14.95" shape="890.03,1530.54 886.29,1530.58 882.58,1530.96 878.90,1531.66 875.29,1532.64"/>
    </edge>
    <edge id=":1_6" function="internal">
        <lane id=":1_6_0" index="0" speed="9.03" length="14.51" shape="890.03,1530.54 886.15,1529.89 883.11,1528.30 880.90,1525.74 879.53,1522.23"/>
    </edge>
    <edge id=":1_7" function="internal">
        <lane id=":1_7_0" index="0" speed="3.65" length="4.67" shape="890.03,1530.54 888.86,1529.69 888.49,1528.88 888.92,1528.09 890.15,1527.34"/>
    </edge>
    <edge id=":1_8" function="internal">
        <lane id=":1_8_0" index="0" speed="7.70" length="10.32" shape="882.64,1521.48 883.61,1523.96 885.19,1525.76 887.37,1526.88 890.15,1527.34"/>
    </edge>
    <edge id=":1_9" function="internal">
        <lane id=":1_9_0" index="0" speed="13.89" length="15.56" shape="882.64,1521.48 883.40,1525.24 883.95,1529.14 884.30,1533.07 884.45,1536.90"/>
    </edge>
    <edge id=":1_10" function="internal">
        <lane id=":1_10_0" index="0" speed="8.41" length="6.16" shape="882.64,1521.48 882.92,1525.28 882.12,1527.49"/>
    </edge>
    <edge id=":1_11" function="internal">
        <lane id=":1_11_0" index="0" speed="3.65" length="2.34" shape="882.64,1521.48 882.14,1522.83 881.46,1523.41"/>
    </edge>
    <edge id=":1_18" function="internal">
        <lane id=":1_18_0" index="0" speed="8.41" length="8.84" shape="882.12,1527.49 881.79,1528.40 879.25,1530.85 875.29,1532.64"/>
    </edge>
    <edge id=":1_19" function="internal">
        <lane id=":1_19_0" index="0" speed="3.65" length="2.34" shape="881.46,1523.41 880.59,1523.21 879.53,1522.23"/>
    </edge>
    <edge id=":1_12" function="internal">
        <lane id=":1_12_0" index="0" speed="7.00" length="10.09" shape="874.34,1529.58 877.09,1528.37 878.87,1526.74 879.68,1524.69 879.53,1522.23"/>
    </edge>
    <edge id=":1_13" function="internal">
        <lane id=":1_13_0" index="0" speed="13.89" length="16.03" shape="874.34,1529.58 878.12,1528.58 882.16,1527.83 886.24,1527.40 890.15,1527.34"/>
    </edge>
    <edge id=":1_14" function="internal">
        <lane id=":1_14_0" index="0" speed="7.59" length="15.41" shape="874.34,1529.58 878.70,1528.88 881.84,1529.87 883.75,1532.54 884.45,1536.90"/>
    </edge>
    <edge id=":1_15" function="internal">
        <lane id=":1_15_0" index="0" speed="3.65" length="4.67" shape="874.34,1529.58 875.73,1529.99 876.34,1530.64 876.20,1531.52 875.29,1532.64"/>
    </edge>
    <edge id=":10_0" function="internal">
        <lane id=":10_0_0" index="0" speed="5.61" length="9.32" shape="722.04,1588.99 720.81,1586.43 719.31,1585.39 717.56,1585.86 715.53,1587.85"/>
    </edge>
    <edge id=":10_1" function="internal">
        <lane id=":10_1_0" index="0" speed="13.89" length="15.73" shape="722.04,1588.99 720.65,1585.36 718.83,1581.77 716.57,1578.48 713.89,1575.74"/>
    </edge>
    <edge id=":10_2" function="internal">
        <lane id=":10_2_0" index="0" speed="8.53" length="6.15" shape="722.04,1588.99 720.97,1584.00 721.10,1582.96"/>
    </edge>
    <edge id=":10_3" function="internal">
        <lane id=":10_3_0" index="0" speed="3.65" length="2.22" shape="722.04,1588.99 722.42,1587.60 722.97,1587.05"/>
    </edge>
    <edge id=":10_16" function="internal">
        <lane id=":10_16_0" index="0" speed="8.53" length="10.35" shape="721.10,1582.96 721.43,1580.07 723.40,1577.18 726.89,1575.34"/>
    </edge>
    <edge id=":10_17" function="internal">
        <lane id=":10_17_0" index="0" speed="3.65" length="2.45" shape="722.97,1587.05 723.05,1586.97 723.94,1587.09 725.07,1587.98"/>
    </edge>
    <edge id=":10_4" function="internal">
        <lane id=":10_4_0" index="0" speed="7.16" length="11.29" shape="727.83,1578.40 725.65,1579.62 724.46,1581.63 724.27,1584.41 725.07,1587.98"/>
    </edge>
    <edge id=":10_5" function="internal">
        <lane id=":10_5_0" index="0" speed="13.89" length="15.72" shape="727.83,1578.40 724.33,1579.94 721.05,1582.20 718.09,1584.92 715.53,1587.85"/>
    </edge>
    <edge id=":10_6" function="internal">
        <lane id=":10_6_0" index="0" speed="10.82" length="14.82" shape="727.83,1578.40 724.05,1579.13 720.47,1578.94 717.08,1577.81 713.89,1575.74"/>
    </edge>
    <edge id=":10_7" function="internal">
        <lane id=":10_7_0" index="0" speed="3.65" length="4.67" shape="727.83,1578.40 726.45,1577.99 725.83,1577.34 725.98,1576.46 726.89,1575.34"/>
    </edge>
    <edge id=":10_8" function="internal">
        <lane id=":10_8_0" index="0" speed="9.64" length="11.66" shape="715.91,1573.27 718.42,1574.88 721.09,1575.77 723.91,1575.92 726.89,1575.34"/>
    </edge>
    <edge id=":10_9" function="internal">
        <lane id=":10_9_0" index="0" speed="13.89" length="17.51" shape="715.91,1573.27 718.76,1576.23 721.36,1580.03 723.53,1584.13 725.07,1587.98"/>
    </edge>
    <edge id=":10_10" function="internal">
        <lane id=":10_10_0" index="0" speed="8.64" length="7.10" shape="715.91,1573.27 718.42,1576.24 719.12,1579.37"/>
    </edge>
    <edge id=":10_11" function="internal">
        <lane id=":10_11_0" index="0" speed="3.65" length="2.51" shape="715.91,1573.27 716.33,1574.64 716.14,1575.52 715.98,1575.59"/>
    </edge>
    <edge id=":10_18" function="internal">
        <lane id=":10_18_0" index="0" speed="8.64" length="9.38" shape="719.12,1579.37 719.19,1579.66 718.23,1583.54 715.53,1587.85"/>
    </edge>
    <edge id=":10_19" function="internal">
        <lane id=":10_19_0" index="0" speed="3.65" length="2.16" shape="715.98,1575.59 715.32,1575.88 713.89,1575.74"/>
    </edge>
    <edge id=":10_12" function="internal">
        <lane id=":10_12_0" index="0" speed="7.29" length="11.42" shape="713.02,1585.88 715.01,1582.77 715.83,1580.04 715.45,1577.70 713.89,1575.74"/>
    </edge>
    <edge id=":10_13" function="internal">
        <lane id=":10_13_0" index="0" speed="13.89" length="17.61" shape="713.02,1585.88 715.81,1582.78 719.32,1579.69 723.14,1577.06 726.89,1575.34"/>
    </edge>
    <edge id=":10_14" function="internal">
        <lane id=":10_14_0" index="0" speed="7.38" length="17.28" shape="713.02,1585.88 716.77,1582.19 720.03,1581.31 722.80,1583.24 725.07,1587.98"/>
    </edge>
    <edge id=":10_15" function="internal">
        <lane id=":10_15_0" index="0" speed="3.65" length="4.67" shape="713.02,1585.88 714.39,1585.43 715.26,1585.61 715.65,1586.41 715.53,1587.85"/>
    </edge>
    <edge id=":1004_0" function="internal">
        <lane id=":1004_0_0" index="0" speed="6.60" length="7.16" shape="745.20,1830.37 743.33,1830.06 741.66,1830.32 740.20,1831.16 738.94,1832.58"/>
    </edge>
    <edge id=":1004_1" function="internal">
        <lane id=":1004_1_0" index="0" speed="12.46" length="11.22" shape="745.20,1830.37 742.20,1829.34 740.05,1828.17 738.27,1826.51 736.36,1823.98"/>
    </edge>
    <edge id=":1004_2" function="internal">
        <lane id=":1004_2_0" index="0" speed="3.65" length="2.34" shape="745.20,1830.37 744.28,1829.25 744.13,1828.37"/>
    </edge>
    <edge id=":1004_9" function="internal">
        <lane id=":1004_9_0" index="0" speed="3.65" length="2.34" shape="744.13,1828.37 744.75,1827.72 746.13,1827.31"/>
    </edge>
    <edge id=":1004_3" function="internal">
        <lane id=":1004_3_0" index="0" speed="11.26" length="9.09" shape="738.99,1822.16 740.57,1824.31 741.92,1825.61 743.59,1826.47 746.13,1827.31"/>
    </edge>
    <edge id=":1004_4" function="internal">
        <lane id=":1004_4_0" index="0" speed="8.34" length="4.69" shape="738.99,1822.16 740.32,1824.74 740.61,1826.51"/>
    </edge>
    <edge id=":1004_5" function="internal">
        <lane id=":1004_5_0" index="0" speed="3.65" length="2.34" shape="738.99,1822.16 739.02,1823.60 738.58,1824.39"/>
    </edge>
    <edge id=":1004_10" function="internal">
        <lane id=":1004_10_0" index="0" speed="8.34" length="6.44" shape="740.61,1826.51 740.75,1827.33 740.29,1829.94 738.94,1832.58"/>
    </edge>
    <edge id=":1004_11" function="internal">
        <lane id=":1004_11_0" index="0" speed="3.65" length="2.34" shape="738.58,1824.39 737.70,1824.52 736.36,1823.98"/>
    </edge>
    <edge id=":1004_6" function="internal">
        <lane id=":1004_6_0" index="0" speed="6.85" length="7.27" shape="736.30,1830.78 737.19,1829.05 737.49,1827.34 737.22,1825.65 736.36,1823.98"/>
    </edge>
    <edge id=":1004_7" function="internal">
        <lane id=":1004_7_0" index="0" speed="8.12" length="11.26" shape="736.30,1830.78 738.28,1828.55 740.57,1827.23 743.19,1826.82 746.13,1827.31"/>
    </edge>
    <edge id=":1004_8" function="internal">
        <lane id=":1004_8_0" index="0" speed="3.65" length="4.67" shape="736.30,1830.78 737.63,1830.23 738.52,1830.35 738.96,1831.13 738.94,1832.58"/>
    </edge>
    <edge id=":1010_0" function="internal">
        <lane id=":1010_0_0" index="0" speed="12.08" length="19.08" shape="773.17,2085.24 770.74,2089.10 767.41,2092.09 763.16,2094.19 758.00,2095.41"/>
    </edge>
    <edge id=":1010_1" function="internal">
        <lane id=":1010_1_0" index="0" speed="7.82" length="8.48" shape="773.17,2085.24 770.62,2089.01 767.51,2090.41 767.01,2090.28"/>
    </edge>
    <edge id=":1010_2" function="internal">
        <lane id=":1010_2_0" index="0" speed="3.65" length="2.55" shape="773.17,2085.24 771.94,2086.00 771.05,2086.03 770.91,2085.87"/>
    </edge>
    <edge id=":1010_9" function="internal">
        <lane id=":1010_9_0" index="0" speed="7.82" length="8.67" shape="767.01,2090.28 763.83,2089.46 759.58,2086.15"/>
    </edge>
    <edge id=":1010_10" function="internal">
        <lane id=":1010_10_0" index="0" speed="3.65" length="2.12" shape="770.91,2085.87 770.49,2085.34 770.26,2083.91"/>
    </edge>
    <edge id=":1010_3" function="internal">
        <lane id=":1010_3_0" index="0" speed="6.27" length="10.53" shape="761.83,2083.88 764.54,2086.04 766.84,2086.76 768.75,2086.05 770.26,2083.91"/>
    </edge>
    <edge id=":1010_4" function="internal">
        <lane id=":1010_4_0" index="0" speed="7.38" length="17.84" shape="761.83,2083.88 765.24,2088.21 765.74,2091.58 763.33,2093.98 758.00,2095.41"/>
    </edge>
    <edge id=":1010_5" function="internal">
        <lane id=":1010_5_0" index="0" speed="3.65" length="4.67" shape="761.83,2083.88 762.12,2085.29 761.84,2086.14 761.00,2086.43 759.58,2086.15"/>
    </edge>
    <edge id=":1010_6" function="internal">
        <lane id=":1010_6_0" index="0" speed="5.55" length="9.42" shape="757.56,2092.24 760.37,2091.49 761.64,2090.22 761.38,2088.44 759.58,2086.15"/>
    </edge>
    <edge id=":1010_7" function="internal">
        <lane id=":1010_7_0" index="0" speed="11.05" length="15.86" shape="757.56,2092.24 761.91,2091.22 765.48,2089.50 768.26,2087.06 770.26,2083.91"/>
    </edge>
    <edge id=":1010_8" function="internal">
        <lane id=":1010_8_0" index="0" speed="3.65" length="2.17" shape="757.56,2092.24 758.85,2092.87 759.27,2093.46"/>
    </edge>
    <edge id=":1010_11" function="internal">
        <lane id=":1010_11_0" index="0" speed="3.65" length="2.51" shape="759.27,2093.46 759.36,2093.60 759.08,2094.45 758.00,2095.41"/>
    </edge>
    <edge id=":1026_0" function="internal">
        <lane id=":1026_0_0" index="0" speed="6.51" length="8.91" shape="593.57,1728.85 592.87,1726.51 591.60,1724.95 589.75,1724.14 587.32,1724.11"/>
    </edge>
    <edge id=":1026_1" function="internal">
        <lane id=":1026_1_0" index="0" speed="13.89" length="13.90" shape="593.57,1728.85 593.12,1725.30 592.87,1721.93 592.83,1718.56 592.99,1714.99"/>
    </edge>
    <edge id=":1026_2" function="internal">
        <lane id=":1026_2_0" index="0" speed="3.65" length="2.34" shape="593.57,1728.85 594.18,1727.54 594.91,1727.03"/>
    </edge>
    <edge id=":1026_9" function="internal">
        <lane id=":1026_9_0" index="0" speed="3.65" length="2.34" shape="594.91,1727.03 595.76,1727.31 596.73,1728.38"/>
    </edge>
    <edge id=":1026_3" function="internal">
        <lane id=":1026_3_0" index="0" speed="13.89" length="13.20" shape="596.19,1715.22 596.02,1718.68 596.05,1721.81 596.29,1724.94 596.73,1728.38"/>
    </edge>
    <edge id=":1026_4" function="internal">
        <lane id=":1026_4_0" index="0" speed="8.53" length="5.34" shape="596.19,1715.22 595.42,1718.71 594.45,1720.19"/>
    </edge>
    <edge id=":1026_5" function="internal">
        <lane id=":1026_5_0" index="0" speed="3.65" length="2.34" shape="596.19,1715.22 595.30,1716.36 594.47,1716.70"/>
    </edge>
    <edge id=":1026_10" function="internal">
        <lane id=":1026_10_0" index="0" speed="8.53" length="8.43" shape="594.45,1720.19 593.68,1721.36 590.98,1723.16 587.32,1724.11"/>
    </edge>
    <edge id=":1026_11" function="internal">
        <lane id=":1026_11_0" index="0" speed="3.65" length="2.34" shape="594.47,1716.70 593.71,1716.24 592.99,1714.99"/>
    </edge>
    <edge id=":1026_6" function="internal">
        <lane id=":1026_6_0" index="0" speed="7.12" length="9.33" shape="586.91,1720.94 589.43,1720.29 591.28,1719.08 592.47,1717.32 592.99,1714.99"/>
    </edge>
    <edge id=":1026_7" function="internal">
        <lane id=":1026_7_0" index="0" speed="8.01" length="13.99" shape="586.91,1720.94 590.73,1720.99 593.65,1722.25 595.64,1724.71 596.73,1728.38"/>
    </edge>
    <edge id=":1026_8" function="internal">
        <lane id=":1026_8_0" index="0" speed="3.65" length="4.67" shape="586.91,1720.94 588.20,1721.58 588.70,1722.32 588.40,1723.16 587.32,1724.11"/>
    </edge>
    <edge id=":1056_0" function="internal">
        <lane id=":1056_0_0" index="0" speed="3.65" length="4.67" shape="1463.54,1078.67 1464.39,1079.83 1464.49,1080.72 1463.84,1081.33 1462.44,1081.67"/>
    </edge>
    <edge id=":1092_0" function="internal">
        <lane id=":1092_0_0" index="0" speed="13.89" length="18.30" shape="647.57,1975.19 645.02,1971.83 642.79,1967.50 641.00,1962.92 639.79,1958.80"/>
    </edge>
    <edge id=":1092_1" function="internal">
        <lane id=":1092_1_0" index="0" speed="9.49" length="6.95" shape="647.57,1975.19 645.53,1972.08 645.14,1968.87"/>
    </edge>
    <edge id=":1092_2" function="internal">
        <lane id=":1092_2_0" index="0" speed="3.65" length="2.54" shape="647.57,1975.19 647.28,1973.77 647.56,1972.92 647.76,1972.86"/>
    </edge>
    <edge id=":1092_9" function="internal">
        <lane id=":1092_9_0" index="0" speed="9.49" length="10.57" shape="645.14,1968.87 645.08,1968.37 646.23,1964.07 648.97,1959.17"/>
    </edge>
    <edge id=":1092_10" function="internal">
        <lane id=":1092_10_0" index="0" speed="3.65" length="2.13" shape="647.76,1972.86 648.41,1972.64 649.83,1972.91"/>
    </edge>
    <edge id=":1092_3" function="internal">
        <lane id=":1092_3_0" index="0" speed="8.26" length="13.06" shape="651.61,1960.97 649.41,1964.79 648.38,1968.05 648.52,1970.76 649.83,1972.91"/>
    </edge>
    <edge id=":1092_4" function="internal">
        <lane id=":1092_4_0" index="0" speed="7.40" length="18.74" shape="651.61,1960.97 647.74,1965.44 644.48,1966.57 641.83,1964.36 639.79,1958.80"/>
    </edge>
    <edge id=":1092_5" function="internal">
        <lane id=":1092_5_0" index="0" speed="3.65" length="4.67" shape="651.61,1960.97 650.28,1961.51 649.39,1961.39 648.95,1960.61 648.97,1959.17"/>
    </edge>
    <edge id=":1092_6" function="internal">
        <lane id=":1092_6_0" index="0" speed="5.50" length="9.61" shape="642.91,1958.06 643.95,1960.90 645.31,1962.04 646.98,1961.46 648.97,1959.17"/>
    </edge>
    <edge id=":1092_7" function="internal">
        <lane id=":1092_7_0" index="0" speed="13.89" length="16.56" shape="642.91,1958.06 643.98,1961.93 645.47,1965.99 647.41,1969.79 649.83,1972.91"/>
    </edge>
    <edge id=":1092_8" function="internal">
        <lane id=":1092_8_0" index="0" speed="3.65" length="2.34" shape="642.91,1958.06 642.41,1959.41 641.72,1959.98"/>
    </edge>
    <edge id=":1092_11" function="internal">
        <lane id=":1092_11_0" index="0" speed="3.65" length="2.34" shape="641.72,1959.98 640.85,1959.78 639.79,1958.80"/>
    </edge>
    <edge id=":115_0" function="internal">
        <lane id=":115_0_0" index="0" speed="5.67" length="9.24" shape="1054.83,1221.40 1053.27,1219.11 1051.63,1218.27 1049.89,1218.89 1048.06,1220.97"/>
    </edge>
    <edge id=":115_1" function="internal">
        <lane id=":115_1_0" index="0" speed="11.86" length="15.57" shape="1054.83,1221.40 1052.64,1217.87 1049.97,1215.10 1046.82,1213.09 1043.20,1211.85"/>
    </edge>
    <edge id=":115_2" function="internal">
        <lane id=":115_2_0" index="0" speed="3.65" length="2.17" shape="1054.83,1221.40 1055.01,1219.97 1055.44,1219.39"/>
    </edge>
    <edge id=":115_9" function="internal">
        <lane id=":115_9_0" index="0" speed="3.65" length="2.51" shape="1055.44,1219.39 1055.55,1219.25 1056.44,1219.26 1057.69,1219.97"/>
    </edge>
    <edge id=":115_3" function="internal">
        <lane id=":115_3_0" index="0" speed="12.87" length="18.42" shape="1043.89,1208.73 1048.21,1210.20 1051.95,1212.56 1055.11,1215.82 1057.69,1219.97"/>
    </edge>
    <edge id=":115_4" function="internal">
        <lane id=":115_4_0" index="0" speed="7.64" length="8.39" shape="1043.89,1208.73 1048.18,1210.39 1050.31,1212.98 1050.30,1213.41"/>
    </edge>
    <edge id=":115_5" function="internal">
        <lane id=":115_5_0" index="0" speed="3.65" length="2.52" shape="1043.89,1208.73 1044.89,1209.77 1045.10,1210.64 1044.99,1210.78"/>
    </edge>
    <edge id=":115_10" function="internal">
        <lane id=":115_10_0" index="0" speed="7.64" length="8.08" shape="1050.30,1213.41 1050.27,1216.51 1048.06,1220.97"/>
    </edge>
    <edge id=":115_11" function="internal">
        <lane id=":115_11_0" index="0" speed="3.65" length="2.16" shape="1044.99,1210.78 1044.54,1211.33 1043.20,1211.85"/>
    </edge>
    <edge id=":115_6" function="internal">
        <lane id=":115_6_0" index="0" speed="6.02" length="9.74" shape="1045.40,1219.20 1046.75,1216.50 1046.84,1214.38 1045.65,1212.83 1043.20,1211.85"/>
    </edge>
    <edge id=":115_7" function="internal">
        <lane id=":115_7_0" index="0" speed="7.41" length="16.77" shape="1045.40,1219.20 1048.72,1215.42 1051.88,1214.29 1054.87,1215.80 1057.69,1219.97"/>
    </edge>
    <edge id=":115_8" function="internal">
        <lane id=":115_8_0" index="0" speed="3.65" length="4.67" shape="1045.40,1219.20 1046.73,1218.64 1047.62,1218.75 1048.06,1219.53 1048.06,1220.97"/>
    </edge>
    <edge id=":118_0" function="internal">
        <lane id=":118_0_0" index="0" speed="13.89" length="17.12" shape="658.72,1205.77 654.78,1206.76 650.35,1207.31 645.86,1207.48 641.77,1207.36"/>
    </edge>
    <edge id=":118_1" function="internal">
        <lane id=":118_1_0" index="0" speed="9.29" length="6.45" shape="658.72,1205.77 655.09,1206.30 652.43,1205.51"/>
    </edge>
    <edge id=":118_2" function="internal">
        <lane id=":118_2_0" index="0" speed="3.65" length="2.47" shape="658.72,1205.77 657.33,1205.41 656.68,1204.79 656.70,1204.65"/>
    </edge>
    <edge id=":118_9" function="internal">
        <lane id=":118_9_0" index="0" speed="9.29" length="10.05" shape="652.43,1205.51 651.66,1205.28 648.43,1202.71 645.40,1198.58"/>
    </edge>
    <edge id=":118_10" function="internal">
        <lane id=":118_10_0" index="0" speed="3.65" length="2.20" shape="656.70,1204.65 656.80,1203.90 657.67,1202.75"/>
    </edge>
    <edge id=":118_3" function="internal">
        <lane id=":118_3_0" index="0" speed="8.03" length="12.09" shape="648.15,1196.94 650.44,1200.14 652.78,1202.17 655.19,1203.04 657.67,1202.75"/>
    </edge>
    <edge id=":118_4" function="internal">
        <lane id=":118_4_0" index="0" speed="7.38" length="17.43" shape="648.15,1196.94 650.28,1201.83 649.93,1205.19 647.09,1207.04 641.77,1207.36"/>
    </edge>
    <edge id=":118_5" function="internal">
        <lane id=":118_5_0" index="0" speed="3.65" length="4.67" shape="648.15,1196.94 648.08,1198.38 647.60,1199.14 646.71,1199.20 645.40,1198.58"/>
    </edge>
    <edge id=":118_6" function="internal">
        <lane id=":118_6_0" index="0" speed="5.59" length="9.34" shape="641.98,1204.17 644.83,1203.99 646.35,1203.01 646.54,1201.20 645.40,1198.58"/>
    </edge>
    <edge id=":118_7" function="internal">
        <lane id=":118_7_0" index="0" speed="13.89" length="15.84" shape="641.98,1204.17 645.87,1204.32 649.93,1204.20 653.93,1203.71 657.67,1202.75"/>
    </edge>
    <edge id=":118_8" function="internal">
        <lane id=":118_8_0" index="0" speed="3.65" length="2.34" shape="641.98,1204.17 643.13,1205.05 643.47,1205.87"/>
    </edge>
    <edge id=":118_11" function="internal">
        <lane id=":118_11_0" index="0" speed="3.65" length="2.34" shape="643.47,1205.87 643.02,1206.64 641.77,1207.36"/>
    </edge>
    <edge id=":1198_0" function="internal">
        <lane id=":1198_0_0" index="0" speed="13.89" length="0.42" shape="607.78,1824.99 607.75,1824.87 607.73,1824.78 607.71,1824.70 607.70,1824.57"/>
    </edge>
    <edge id=":1198_1" function="internal">
        <lane id=":1198_1_0" index="0" speed="13.89" length="0.14" shape="610.86,1824.11 610.87,1824.15 610.87,1824.18 610.88,1824.20 610.89,1824.24"/>
    </edge>
    <edge id=":12_0" function="internal">
        <lane id=":12_0_0" index="0" speed="13.89" length="19.16" shape="962.24,1361.56 959.23,1358.38 955.17,1355.17 950.79,1352.36 946.85,1350.40"/>
    </edge>
    <edge id=":12_1" function="internal">
        <lane id=":12_1_0" index="0" speed="13.89" length="20.94" shape="962.24,1361.56 959.70,1357.64 956.87,1352.58 954.27,1347.40 952.40,1343.11"/>
    </edge>
    <edge id=":12_2" function="internal">
        <lane id=":12_2_0" index="0" speed="10.88" length="8.19" shape="962.24,1361.56 959.94,1357.23 959.46,1353.98"/>
    </edge>
    <edge id=":12_3" function="internal">
        <lane id=":12_3_0" index="0" speed="7.68" length="6.90" shape="962.24,1361.56 959.96,1357.20 960.15,1355.23"/>
    </edge>
    <edge id=":12_4" function="internal">
        <lane id=":12_4_0" index="0" speed="3.65" length="2.44" shape="962.24,1361.56 962.17,1360.11 962.57,1359.32 962.67,1359.30"/>
    </edge>
    <edge id=":12_25" function="internal">
        <lane id=":12_25_0" index="0" speed="10.88" length="11.84" shape="959.46,1353.98 959.26,1352.68 960.23,1347.90 962.83,1342.89"/>
    </edge>
    <edge id=":12_26" function="internal">
        <lane id=":12_26_0" index="0" speed="7.68" length="11.00" shape="960.15,1355.23 960.29,1353.81 963.24,1351.37 968.80,1349.88"/>
    </edge>
    <edge id=":12_27" function="internal">
        <lane id=":12_27_0" index="0" speed="3.65" length="2.23" shape="962.67,1359.30 963.45,1359.16 964.81,1359.65"/>
    </edge>
    <edge id=":12_5" function="internal">
        <lane id=":12_5_0" index="0" speed="6.05" length="10.54" shape="969.26,1353.05 965.82,1353.93 963.93,1355.32 963.60,1357.22 964.81,1359.65"/>
    </edge>
    <edge id=":12_6" function="internal">
        <lane id=":12_6_0" index="0" speed="13.89" length="22.69" shape="969.26,1353.05 964.32,1353.20 957.94,1352.69 951.61,1351.70 946.85,1350.40"/>
    </edge>
    <edge id=":12_7" function="internal">
        <lane id=":12_7_0" index="0" speed="10.61" length="21.40" shape="969.26,1353.05 963.58,1353.11 958.87,1351.47 955.15,1348.14 952.40,1343.11"/>
    </edge>
    <edge id=":12_8" function="internal">
        <lane id=":12_8_0" index="0" speed="7.40" length="18.69" shape="969.26,1353.05 963.37,1353.22 960.33,1351.58 960.16,1348.14 962.83,1342.89"/>
    </edge>
    <edge id=":12_9" function="internal">
        <lane id=":12_9_0" index="0" speed="3.65" length="4.67" shape="969.26,1353.05 967.96,1352.43 967.45,1351.70 967.72,1350.85 968.80,1349.88"/>
    </edge>
    <edge id=":12_10" function="internal">
        <lane id=":12_10_0" index="0" speed="5.50" length="9.60" shape="965.50,1344.67 964.12,1347.36 964.21,1349.13 965.77,1349.97 968.80,1349.88"/>
    </edge>
    <edge id=":12_11" function="internal">
        <lane id=":12_11_0" index="0" speed="9.79" length="16.07" shape="965.50,1344.67 963.36,1348.74 962.53,1352.60 963.01,1356.23 964.81,1359.65"/>
    </edge>
    <edge id=":12_12" function="internal">
        <lane id=":12_12_0" index="0" speed="10.55" length="21.36" shape="965.50,1344.67 961.73,1348.92 957.37,1351.30 952.41,1351.79 946.85,1350.40"/>
    </edge>
    <edge id=":12_13" function="internal">
        <lane id=":12_13_0" index="0" speed="7.65" length="18.93" shape="965.50,1344.67 961.70,1349.03 958.26,1350.22 955.15,1348.25 952.40,1343.11"/>
    </edge>
    <edge id=":12_14" function="internal">
        <lane id=":12_14_0" index="0" speed="3.65" length="4.67" shape="965.50,1344.67 964.16,1345.22 963.28,1345.11 962.83,1344.33 962.83,1342.89"/>
    </edge>
    <edge id=":12_15" function="internal">
        <lane id=":12_15_0" index="0" speed="5.93" length="10.77" shape="955.39,1341.96 956.96,1344.90 958.72,1346.03 960.68,1345.36 962.83,1342.89"/>
    </edge>
    <edge id=":12_16" function="internal">
        <lane id=":12_16_0" index="0" speed="9.51" length="17.03" shape="955.39,1341.96 957.57,1345.97 960.54,1348.62 964.28,1349.93 968.80,1349.88"/>
    </edge>
    <edge id=":12_17" function="internal">
        <lane id=":12_17_0" index="0" speed="13.89" length="20.08" shape="955.39,1341.96 957.20,1346.13 959.65,1351.05 962.33,1355.85 964.81,1359.65"/>
    </edge>
    <edge id=":12_18" function="internal">
        <lane id=":12_18_0" index="0" speed="7.40" length="6.80" shape="955.39,1341.96 956.86,1347.73 956.64,1348.54"/>
    </edge>
    <edge id=":12_19" function="internal">
        <lane id=":12_19_0" index="0" speed="3.65" length="2.34" shape="955.39,1341.96 955.07,1343.37 954.47,1344.03"/>
    </edge>
    <edge id=":12_28" function="internal">
        <lane id=":12_28_0" index="0" speed="7.40" length="12.02" shape="956.64,1348.54 955.93,1351.06 952.60,1351.95 946.85,1350.40"/>
    </edge>
    <edge id=":12_29" function="internal">
        <lane id=":12_29_0" index="0" speed="3.65" length="2.34" shape="954.47,1344.03 953.58,1343.94 952.40,1343.11"/>
    </edge>
    <edge id=":12_20" function="internal">
        <lane id=":12_20_0" index="0" speed="5.49" length="9.62" shape="948.03,1347.43 950.97,1348.22 952.68,1347.76 953.15,1346.06 952.40,1343.11"/>
    </edge>
    <edge id=":12_21" function="internal">
        <lane id=":12_21_0" index="0" speed="9.45" length="16.95" shape="948.03,1347.43 952.45,1348.53 956.38,1348.14 959.85,1346.26 962.83,1342.89"/>
    </edge>
    <edge id=":12_22" function="internal">
        <lane id=":12_22_0" index="0" speed="13.89" length="21.03" shape="948.03,1347.43 952.54,1348.69 958.30,1349.62 964.12,1350.07 968.80,1349.88"/>
    </edge>
    <edge id=":12_23" function="internal">
        <lane id=":12_23_0" index="0" speed="13.89" length="20.90" shape="948.03,1347.43 952.19,1349.55 957.04,1352.72 961.58,1356.30 964.81,1359.65"/>
    </edge>
    <edge id=":12_24" function="internal">
        <lane id=":12_24_0" index="0" speed="3.65" length="4.67" shape="948.03,1347.43 948.85,1348.61 948.93,1349.50 948.26,1350.10 946.85,1350.40"/>
    </edge>
    <edge id=":1200_0" function="internal">
        <lane id=":1200_0_0" index="0" speed="3.65" length="4.67" shape="403.04,1747.68 401.75,1747.03 401.25,1746.29 401.54,1745.45 402.63,1744.50"/>
    </edge>
    <edge id=":122_0" function="internal">
        <lane id=":122_0_0" index="0" speed="6.55" length="7.91" shape="1330.45,1319.40 1328.33,1319.38 1326.60,1320.00 1325.26,1321.26 1324.32,1323.16"/>
    </edge>
    <edge id=":122_1" function="internal">
        <lane id=":122_1_0" index="0" speed="8.64" length="12.14" shape="1330.45,1319.40 1327.27,1318.54 1324.81,1316.99 1323.05,1314.76 1321.99,1311.84"/>
    </edge>
    <edge id=":122_2" function="internal">