<?xml version="1.0" encoding="UTF-8"?>

<!-- generated on 2021-09-08 08:10:56 by Eclipse SUMO GUI Version v1_10_0+0561-8e1db478dcc
-->

<configuration xmlns:xsi="http://www.w3.org/2001/XMLSchema-instance" xsi:noNamespaceSchemaLocation="http://sumo.dlr.de/xsd/sumoConfiguration.xsd">

    <input>
        <net-file value="osm.net.xml"/>
        <additional-files value="tazgrid.add.xml"/>
    </input>
    <g value="taz.view.xml"/>
    <no-warnings value="true"/>

</configuration>
