<?xml version="1.0" encoding="UTF-8"?>

<!-- generated on 2021-09-07 15:10:41 by Eclipse SUMO duarouter Version v1_10_0+0551-f581c04ba63
<configuration xmlns:xsi="http://www.w3.org/2001/XMLSchema-instance" xsi:noNamespaceSchemaLocation="http://sumo.dlr.de/xsd/duarouterConfiguration.xsd">

    <input>
        <net-file value="osm.net.xml"/>
        <route-files value="osm.passenger.trips.xml"/>
    </input>

    <output>
        <output-file value="routes.rou.xml"/>
        <alternatives-output value="routes.rou.alt.xml"/>
    </output>

    <time>
        <begin value="0"/>
        <end value="1800"/>
    </time>

    <report>
        <no-warnings value="true"/>
        <ignore-errors value="true"/>
        <no-step-log value="true"/>
    </report>

</configuration>
-->

<routes xmlns:xsi="http://www.w3.org/2001/XMLSchema-instance" xsi:noNamespaceSchemaLocation="http://sumo.dlr.de/xsd/routes_file.xsd">
    <vType id="veh_passenger" vClass="passenger"/>
    <vehicle id="veh0" type="veh_passenger" depart="0.00" departLane="best">
        <route edges="152447118#2 152447118#3 152447118#4 152447118#5 141968830#1 141968830#2 141968810#0 141968810#1 141968844#2 141968844#3 141968844#4 141968844#5 141968844#6 141873658#0 141873658#1 -52460499#12 -52460499#11 -138624421#34 -138624421#33 -138624421#32 -138624421#31 -138624421#29 -138624421#27 -138624421#25"/>
    </vehicle>
    <vehicle id="veh1" type="veh_passenger" depart="1.77" departLane="best">
        <route edges="-314415495#16 -314415495#15 -314415495#14 -314415495#13 -314415495#12 314415495#12 314415495#13 314415495#14 314415495#15 314415495#16 314415495#17 314415495#19 314415495#21 314415495#22 314415495#25 318210361#0 318210361#1 143308549#1 143308549#2 143308549#3 976351540#1 52036180#1 52036180#3 40191607#2 -23913526#0 -187123053#0"/>
    </vehicle>
    <vehicle id="veh2" type="veh_passenger" depart="3.53" departLane="best">
        <route edges="24152326#1 23925124#0 23925124#1 23925124#2 149611511#0 149611511#1 149611511#2 149611511#3 149611511#4 187122892#0 187122892#1 187122892#2 187122892#3 187122892#5 187122892#6 187122892#7 187122892#8"/>
    </vehicle>
    <vehicle id="veh3" type="veh_passenger" depart="5.30" departLane="best">
        <route edges="46150483#1 206579057 206579058#1 46039050#1 -142575679#9 -142575679#8 -142575679#7 -142575679#6 -142575679#5 -142575679#3 -142575679#2"/>
    </vehicle>
    <vehicle id="veh4" type="veh_passenger" depart="7.07" departLane="best">
        <route edges="-187122892#8 -187122892#7 -187122892#6 -187122892#5 -187122892#3 -187122892#2 -187122892#1 -146511461#4 -146511461#3 -146511461#2 -146511461#1 153021549#0 153021549#1 153021549#2 153021549#3 153021549#4 153021549#5 40191606#0 40191606#2 40191606#3 414563781 206889086#1 541676219 318210389#0 670062912#1 81639675#1 81639675#2 81639675#3 81639675#4 670062909#1 670062908#1 670062907#1 670062907#2 670062907#4 -142575674#5 142575688#0 142575688#1 142575688#2 142575688#3 142575688#5 142575688#6 142575688#7"/>
    </vehicle>
    <vehicle id="veh6" type="veh_passenger" depart="10.60" departLane="best">
        <route edges="153021549#2 153021549#3 153021549#4 153021549#5 40191606#0 40191606#2 40191606#3 414563781 206889086#1 541676219 318210389#0 670062912#1 81639675#1 81639675#2 81639675#3 81639675#4 670062909#1 670062908#1 670062907#1 670062907#2 670062907#4 143308542#12 143308542#13 142575704#2 142575704#3 142575704#4"/>
    </vehicle>
    <vehicle id="veh7" type="veh_passenger" depart="12.37" departLane="best">
        <route edges="-187123053#2 -187123053#1 187123053#1 187123053#2 -152839428 45875465 679901152#0 206889086#1 541676219 318210389#0 670062912#1 81639675#1 81639675#2 81639675#3 81639675#4 670062909#1 670062908#1 670062907#1 670062907#2 670062907#4 52081075#1 52081075#3 52081075#4 887919959#2 887919959#3 887919959#4 142575655#10 142575655#12 142575655#13 -143308521#13 -143308521#12 -143308521#11 -143308521#9 -143308521#4 143308562#1 143308562#2"/>
    </vehicle>
    <vehicle id="veh8" type="veh_passenger" depart="14.14" departLane="best">
        <route edges="318210361#1 670062909#1 670062908#1 670062907#1 670062907#2 670062907#4 52081075#1 52081075#3 52081075#4 887919959#2 887919959#3 887919959#4 142575655#10 142575655#12 142575655#13 142575686#1 142575686#2 142575686#3 142575686#4 142575686#5 142575684#0 142575684#1 142575684#4 142575684#6 135777010#14 135777010#15 135777010#17 135777010#18 135777010#19 135777010#20 135777010#21 -135777010#21 -135777010#20 -135777010#19 -135777010#18 -135777010#17"/>
    </vehicle>
    <vehicle id="veh9" type="veh_passenger" depart="15.90" departLane="best" departSpeed="max">
        <route edges="318210355 206889086#1 541676219 318210389#0 670062912#1 81639675#1 81639675#2 81639675#3 81639675#4 670062909#1 670062908#1 670062907#1 670062907#2 670062907#4 677933664#4 143308546#0 143308546#1 143308546#3 143308546#7 143308546#8 670062902#2 143308532#1 143308532#4 143308532#7 -206579062#3 -206579062#0 -206579061 206579064#0 206579064#1 -206579064#2 -206579064#0 206579061"/>
    </vehicle>
    <vehicle id="veh10" type="veh_passenger" depart="17.67" departLane="best">
        <route edges="-45875465 152839428 -152839428 45875465 679901152#0 206889086#1 541676219 318210389#0 670062912#1 81639675#1 81639675#2 81639675#3 81639675#4 670062909#1 670062908#1 670062907#1 670062907#2 670062907#4 677933664#4 143308546#0 143308546#1 143308546#3 143308546#7 143308546#8 670062902#2 143308587#1 24214694#3 24214694#4 24214694#5 190083618#0 -283317455#1 -143308570 -318210395 -190083616 -71960633#2 -71960633#1 -71960633#0 143308566#0 143308566#1 143308566#2 -143308566#2"/>
    </vehicle>
    <vehicle id="veh11" type="veh_passenger" depart="19.44" departLane="best">
        <route edges="71028777#5 142575693#5 142575693#6 142575693#7 143308546#7 143308546#8 670062902#2 143308587#1 24214694#3 24214694#4 24214694#5 190083618#0 -283317455#1 -143308570 -318210395 -190083616 46150481#0 46150481#1 -46150481#1 -46150481#0"/>
    </vehicle>
    <vehicle id="veh12" type="veh_passenger" depart="21.20" departLane="best">
        <route edges="-142575684#0 142575685#0 142575685#1 -142575655#13 -142575655#12 -142575655#10 -887919959#4 -887919959#3 -887919959#2 -52081075#4 -52081075#3 -52081075#2 -142575674#5 142575688#0 142575688#1 142575688#2 142575688#3 -142575688#3"/>
    </vehicle>
    <vehicle id="veh14" type="veh_passenger" depart="24.74" departLane="best">
        <route edges="318210360#0 204721579#2 204721579#4 204721579#6 146511461#0 146511461#2 146511461#3 146511461#4 146511461#5 146511461#6 146511461#7 146511461#8 146511461#9 23913524#4"/>
    </vehicle>
    <vehicle id="veh15" type="veh_passenger" depart="26.51" departLane="best">
        <route edges="142575700#2 142575700#3 -142575700#3 -142575700#2 -142575700#1 -142575700#0 -334308447#8 -334308447#6 -334308447#4 -334308447#1 -334308447#0 -318210394#0 -52080655#2 976351540#1 52036180#1 52036180#3 72230304#1 461514282#0 461514282#1 204721578#0 977639651#1 153021553 318210353 207086005 977639652 318210360#0 27087586#1 27087586#2 318210374 -187122892#13 40191605#2 800655352"/>
    </vehicle>
    <vehicle id="veh16" type="veh_passenger" depart="28.27" departLane="best">
        <route edges="-81639685#2 81639685#1 314415495#0 314415495#1 314415495#3 314415495#4 314415495#5 314415495#6 314415495#7 314415495#8 314415495#9 314415495#10 314415495#11 314415495#12 314415495#13 314415495#14 314415495#15 314415495#16 314415495#17 314415495#19 142575656#0 142575656#1 142575656#3 142575656#4 142575656#5 142575656#7 142575656#8 142575656#9 142575656#10 142575656#11 142575656#12 143308505#1 143308505#2"/>
    </vehicle>
    <vehicle id="veh17" type="veh_passenger" depart="30.04" departLane="best">
        <route edges="320741893 -172014854#1 -172014854#0 -147859763#4 -147859763#1 -147859763#0 -582467484#0 -142575656#15 -142575656#14 -142575656#12 -142575656#11 -142575656#10 -142575656#9 -142575656#8 -142575656#7 -142575704#5 -142575704#4 -142575704#3 -142575704#2 143308542#14 143308542#15 143308552#1 143308549#1 143308549#2 143308549#3 976351540#1 52036180#1 52036180#3 -679901152#1 -45875465 152839428 24152326#0 24152326#1 23925124#0 23925124#1 23925124#2 149611511#0 149611511#1"/>
    </vehicle>
    <vehicle id="veh18" type="veh_passenger" depart="31.81" departLane="best">
        <route edges="38568630#1 38568630#2 38568630#4 -38568630#4 -38568630#2 -38568630#1 -38568630#0 138624477#5 138624477#6 138624477#7 -138624469#1 -138624452#0 52460499#0 52460499#1 52460499#2 52460499#3 52460499#5 52460499#6 52460499#7 52460499#8 52460499#9 52460499#11 52460499#12 141968913#0 141968913#1 141968844#8 141968844#1 141968844#2 141968844#3 141968844#4 141968823#0 141968823#1 141968853#0 141968853#1 141968853#2 46150483#0 46150483#1 206579057 206579058#1 46039050#1 46039050#4 46039050#7 143308542#1 143308542#3 143308542#4 143308542#6"/>
    </vehicle>
    <vehicle id="veh19" type="veh_passenger" depart="33.57" departLane="best">
        <route edges="206579057 206579058#1 46039051#1 -141968853#2 -141968853#1 -141968853#0 141968814#0 141968814#1 141968844#6 141968844#7 141968844#8 141968807#0 141968807#1 -141968830#2 -141968830#1 -141968830#0"/>
    </vehicle>
    <vehicle id="veh20" type="veh_passenger" depart="35.34" departLane="best">
        <route edges="-20553068#2 -20553068#1 20553068#1 20553068#2 20553068#3 166142947 152839426 -152839428 45875465 679901152#0 206889086#1 541676219 318210389#0 670062912#1 81639675#1 81639675#2 81639675#3 81639675#4 -318210361#2 -318210361#0 -314415495#25 -314415495#22 -314415495#21 142575656#0 142575656#1 142575656#3 142575656#4 142575656#5 142575704#7 142575704#10 142575704#12 142575704#13 142575704#14 142575704#15 142575704#16 142575704#17 142575704#19 142575704#20 142575704#21 142575704#22 142575704#23 -318210371#0"/>
    </vehicle>
    <vehicle id="veh21" type="veh_passenger" depart="37.11" departLane="best">
        <route edges="-142575662#5 -142575657#6 -142575657#4 -142575657#3 -142575657#1 143308521#9 143308521#11 143308521#12 143308521#13 -142575655#13 -142575655#12 -142575655#10 -142575655#7 -142575655#6 -142575655#5 -142575655#2 -142575655#1 -318210378#1 -318210378#0 -887919960#5 -887919960#4 -887919960#0 -318210377#0 -31050360#2 143308552#1 143308549#1 143308549#2 143308549#3 976351540#1 52036180#1 52036180#3 -679901152#1 -45875465 152839428 -152839426 -166142947 -166142948 -20553068#2 -20553068#1"/>
    </vehicle>
    <vehicle id="veh22" type="veh_passenger" depart="38.87" departLane="best">
        <route edges="-142575688#8 -142575688#7 -142575688#6 -142575688#5 142575691#4 142575691#5 147859766 147859765#1 147859765#2 147859765#3 147859765#4 147859765#7 147859765#8 172013798#4 172013798#5 172013798#6 -38160000 -38159999#10 -38159999#9 -38159999#8 -38159999#7 -38159999#6 -38159999#4 -38159999#3 -38159999#2 -38159999#1 -38159999#0 -314415495#7 -314415495#6 -314415495#5 -314415495#4 -314415495#3"/>
    </vehicle>
    <vehicle id="veh23" type="veh_passenger" depart="40.64" departLane="best" departSpeed="max">
        <route edges="152447118#0 152447118#1 152447118#2 152447118#3 152447118#4 152447118#5 141968830#1 141968830#2 141968810#0 141968810#1 141968844#2 141968844#3 141968844#4 141968823#0 141968823#1 141968853#0 141968853#1 141968853#2 46150483#0 46150483#1 206579057 206579058#1 -206579062#3 -206579062#0 -206579061 206579064#0 206579064#1 224769559 190083610#0 190083610#1 318210363#0 -283317455#1 -143308570 -318210395 -190083616 -169076556#3 -169076556#2 -169076556#1 -169076556#0 -81096611#2 -81096611#1 -81096611#0"/>
    </vehicle>
    <vehicle id="veh24" type="veh_passenger" depart="42.41" departLane="best">
        <route edges="-71960633#0 71960633#0 71960633#1 71960633#2 190083616 318210395 143308570 283317455#0 320741894#1 320741893 -172014854#1 -172014854#0"/>
    </vehicle>
    <vehicle id="veh25" type="veh_passenger" depart="44.18" departLane="best">
        <route edges="-31050360#2 143308552#1 143308549#1 143308549#2 143308549#3 976351540#1 52036180#1 52036180#3 206889086#1 541676219"/>
    </vehicle>
    <vehicle id="veh26" type="veh_passenger" depart="45.94" departLane="best">
        <route edges="153021549#1 153021549#2 149611514#0 149611514#1 149611514#2 149611514#3 149611524#2 146511461#6 146511461#7"/>
    </vehicle>
    <vehicle id="veh27" type="veh_passenger" depart="47.71" departLane="best">
        <route edges="-146511461#4 -146511461#3 -146511461#2 -146511461#1 146511461#0 146511461#2 146511461#3 146511461#4 146511461#5 146511461#6 146511461#7 146511461#8 146511461#9 23913524#4"/>
    </vehicle>
    <vehicle id="veh29" type="veh_passenger" depart="51.24" departLane="best" departSpeed="max">
        <route edges="860314547 22762377 22762377-AddedOffRampEdge 146511467 206579090#0 320744674#0 -206579060#1 16942869 -206579064#2 -206579064#0 206579061 206579062#0 206579062#2 46039050#1 46039050#4 46039050#7 143308542#1 143308542#3 143308542#4 143308542#6 143308542#8 143308542#12 143308542#13 143308542#14 143308542#15 143308552#1 143308549#1 143308549#2 143308549#3 976351540#1 52036180#1 52036180#3 72230304#1 461514282#0 461514282#1 204721578#0 153021549#0 153021549#1 153021549#2"/>
    </vehicle>
    <vehicle id="veh30" type="veh_passenger" depart="53.01" departLane="best">
        <route edges="143308505#4 -142575694#4 -142575694#3 -142575694#2 -142575694#1 -142575694#0 142575704#10 142575704#12 142575704#13 142575704#14 142575704#15 142575704#16 142575704#17 142575704#19 142575704#20 142575704#21 142575704#22 142575704#23 318210371#2 142575667#0 48858191#1 318210383#0 52243916#1 -43660343#1 -43660343#0 10735918#0 27087586#1 800655351 190928926#0"/>
    </vehicle>
    <vehicle id="veh31" type="veh_passenger" depart="54.78" departLane="best" departSpeed="max">
        <route edges="347935096#0 347935096#1 347935096#2 347935096#3 347935096#4 347935096#5 347935096#6 221111489 574527503 24038573#0 24038573#1 375685717#1 382647882 12749623 81639678#0 81639678#1 48858193#1 -578917008 -318210371#0 -318210362 -318210367#0 -318210369 -190083608#0 320741895#0 326994261#1 -190083610#1 -190083610#0 180239858#0 180239847 180239842 146511465 320744687 206579084 292525975 292525973"/>
    </vehicle>
    <vehicle id="veh32" type="veh_passenger" depart="56.55" departLane="best">
        <route edges="-206579060#1 16942869 -206579064#2 -206579064#0 206579061 206579062#0 206579062#2 46039051#1 -141968853#2 -141968853#1 -141968853#0 141968814#0 141968814#1 141968844#6 141873658#0 141873658#1 -52460499#12 -52460499#11 -138624421#34 -138624421#33 -138624445#18 -138624445#17 -138624445#16 -138624445#15 -138624445#14 -138624445#13 -138624445#12"/>
    </vehicle>
    <vehicle id="veh33" type="veh_passenger" depart="58.31" departLane="best">
        <route edges="-347935096#6 -347935096#5 -347935096#4 -347935096#3 -347935096#2 -347935096#1 -347935096#0 347935096#0 347935096#1 347935096#2 347935096#3 347935096#4 347935096#5 347935096#6 221111489 574527503 24038573#0 24038573#1 375685717#1 382647882 12749623 81639678#0 81639678#1 48858191#1 318210383#0 81639685#1 314415495#0 314415495#1 314415495#3 314415495#4 314415495#5 314415495#6 314415495#7 314415495#8 314415495#9 314415495#10 314415495#11 -314415495#11"/>
    </vehicle>
    <vehicle id="veh34" type="veh_passenger" depart="60.08" departLane="best">
        <route edges="-178028204#4 178028204#4 178028204#9 166142947 152839426 -152839428 45875465 679901152#0 206889086#1 541676219 318210389#0 670062912#1 81639675#1 81639675#2 81639675#3 81639675#4 670062909#1 670062908#1 670062907#1 670062907#2"/>
    </vehicle>
    <vehicle id="veh35" type="veh_passenger" depart="61.85" departLane="best">
        <route edges="40191606#2 40191606#3 414563781 72230304#1 461514282#0 461514282#1 204721578#0 977639651#1 153021553 318210353 207086005 977639652 318210360#0 152839434#1 43660343#0 43660343#1 48298278#0 48858192#1 318210388#0 -318210386#1 -81639678#0 -12749623 -318210387 -375685718#1 -375685718#0"/>
    </vehicle>
    <vehicle id="veh36" type="veh_passenger" depart="63.61" departLane="best">
        <route edges="166142947 152839426 -152839428 45875465 679901152#0 206889086#1 541676219 318210389#0 670062912#1 81639675#1 81639675#2 81639675#3 81639675#4 670062909#1 670062908#1 670062907#1 670062907#2 670062907#4 677933664#4 143308546#0 143308546#1 143308546#3 143308546#7 143308546#8 670062902#2 143308532#1 143308532#4 143308532#7 -318210380#1 -206579063#0 -135777011#4 -135777011#2 -135777011#1 135777010#0 135777010#1 135777010#2"/>
    </vehicle>
    <vehicle id="veh37" type="veh_passenger" depart="65.38" departLane="best">
        <route edges="52460499#12 141968913#0 141968913#1 141968844#8 141968844#1 141968844#2 141968844#3 141968844#4 141968823#0 141968823#1 141968853#0 141968853#1 141968853#2 46150483#0 46150483#1 206579057 206579058#1 46039050#1 46039050#4 -143308562#6 -143308562#4 -143308562#3 -143308562#2 -143308562#1 143308521#4 143308521#9 143308521#11 143308521#12 143308521#13 -142575655#13 -142575655#12 -142575655#10 -142575655#7 -142575655#6 -142575655#5 142575655#5 142575655#6"/>
    </vehicle>
    <vehicle id="veh38" type="veh_passenger" depart="67.15" departLane="best">
        <route edges="-26991766#9 -26991766#7 -26991766#6 -26991766#5 -26991766#4 -26991766#3 -26991766#1 26991766#1 26991766#3 26991766#4 26991766#5 26991766#6 26991766#7 26991766#9 -142575704#13 -142575704#12 -142575704#10 -142575704#7 -142575704#5 -142575704#4 -142575704#3 -142575704#2 143308542#14 143308542#15 143308552#1 143308549#1 143308549#2 143308549#3 976351540#1 52036180#1 52036180#3 -679901152#1 -45875465 152839428 24152326#0 24152326#1 23925124#0 23925119#0 -23925119#0"/>
    </vehicle>
    <vehicle id="veh39" type="veh_passenger" depart="68.91" departLane="best">
        <route edges="143308521#4 -143308521#4 143308562#1 143308562#2 143308562#3 143308562#4 143308562#6 46039050#7 143308587#1 24214694#3 24214694#4 24214694#5 190083618#0 -283317455#1"/>
    </vehicle>
    <vehicle id="veh40" type="veh_passenger" depart="70.68" departLane="best">
        <route edges="143308546#3 143308546#7 143308546#8 670062902#2 143308542#1 143308542#3 143308542#4 143308542#6 143308542#8 143308542#12 143308542#13 143308542#14 143308542#15 143308552#1 143308549#1 143308549#2 143308549#3 976351540#1 52036180#1 52036180#3 -679901152#1 -45875465 152839428 -152839428 45875465"/>
    </vehicle>
    <vehicle id="veh41" type="veh_passenger" depart="72.45" departLane="best">
        <route edges="135777010#18 135777010#19 135777010#20 135777010#21 -135777010#21 -135777010#20 -135777010#19 -135777010#18 -135777010#17 -135777010#16 -135777010#14 -142575684#6 -142575684#4 -142575684#1 -142575684#0 142575685#0 142575685#1 -142575655#13 -142575655#12 -142575655#10 -142575655#7 -142575655#6 -142575655#5 -142575655#2 -142575655#1 -318210378#1 -318210378#0 -887919960#5 -887919960#4 -887919960#0 -318210377#0 -31050360#2 143308552#1 143308549#1 143308549#2 143308549#3 976351540#1 52036180#1 52036180#3 72230304#1 461514282#0 461514282#1 204721578#0 977639651#1 153021553 318210353 207086005 977639652 318210360#0 27087586#1 27087586#2 318210374 -187122892#13 -187122892#12 -187122892#11 -187122892#10 -187122892#9 -187122892#8 -187122892#7 -187122892#6 -187122892#5"/>
    </vehicle>
    <vehicle id="veh42" type="veh_passenger" depart="74.22" departLane="best">
        <route edges="977639651#1 153021553 318210353 207086005 977639652 318210360#0 152839434#1 43660343#0 43660343#1 48298278#0 48858192#1 318210388#0 48858193#1 -578917008 -318210371#0 -318210362 -318210367#0 -318210369 -190083608#0 320741895#0 -190083618#1 -24214694#5 -24214694#4 -24214694#3 143308590#0 143308532#1 -143308562#6 142575690#0 142575690#1 142575690#2"/>
    </vehicle>
    <vehicle id="veh43" type="veh_passenger" depart="75.98" departLane="best">
        <route edges="-142575679#7 142575679#7 142575679#8 142575679#9 143308532#7 46039051#1 -141968853#2 -141968853#1 -141968853#0 141968814#0 141968814#1 141968844#6 141968844#7 141968844#8 141968807#0 141968807#1 -141968830#2 -141968830#1 -141968830#0"/>
    </vehicle>
    <vehicle id="veh44" type="veh_passenger" depart="77.75" departLane="best">
        <route edges="-142575694#4 -142575694#3 -142575694#2 -142575694#1 -142575694#0 -142575704#7 -142575704#5 -142575704#4 -142575704#3 -142575704#2 143308542#14 143308542#15 143308552#1 143308549#1 143308549#2 143308549#3 976351540#1 52036180#1 52036180#3 -679901152#1 -45875465 152839428 -152839426 -166142947 -178028204#9 -140964924 -137534616#2 -137534616#1 -137534616#0 23913524#0 23913524#1 23913524#2 149611514#8"/>
    </vehicle>
    <vehicle id="veh45" type="veh_passenger" depart="79.52" departLane="best">
        <route edges="314415495#7 314415495#8 314415495#9 314415495#10 314415495#11 314415495#12 314415495#13 314415495#14 314415495#15 314415495#16 314415495#17 314415495#19 314415495#21 314415495#22 314415495#25 318210361#0 318210361#1 670062909#1 670062908#1 670062907#1 670062907#2 670062907#4 677933664#4 143308546#0 143308546#1 143308546#3 143308546#7 143308546#8 670062902#2 143308532#1 143308532#4 143308532#7 46039051#1 -141968853#2 -141968853#1 -141968853#0 141968814#0 141968814#1 141968844#6 141873658#0 141873658#1 -52460499#12 -52460499#11 -52460499#9 -52460499#8 -52460499#7 138624432#1 138624445#7 138624445#8 138624445#9 138624445#10 138624445#11"/>
    </vehicle>
    <vehicle id="veh46" type="veh_passenger" depart="81.28" departLane="best">
        <route edges="-142575656#11 -142575656#10 -142575656#9 -142575656#8 -142575656#7 142575704#7 142575704#10 142575704#12 142575704#13 142575704#14 142575704#15 142575704#16 142575704#17 142575704#19 142575704#20 142575704#21 142575704#22 142575704#23 318210371#2 142575667#0 -318210386#1 -81639678#0 -12749623 -318210387 -375685717#1 -375685717#0 -895850896"/>
    </vehicle>
    <vehicle id="veh47" type="veh_passenger" depart="83.05" departLane="best">
        <route edges="976351540#1 52036180#1 52036180#3 206889086#1 541676219 318210389#0 670062912#1 81639675#1 81639675#2 81639675#3 81639675#4 670062909#1 670062908#1 670062907#1 670062907#2 670062907#4 677933664#4 143308546#0 143308546#1 143308546#3 143308546#7 143308546#8 670062902#2 143308532#1 143308532#4 -142575699#4 -142575699#3 -142575699#2 -142575699#1 142575699#1 142575699#2"/>
    </vehicle>
    <vehicle id="veh48" type="veh_passenger" depart="84.82" departLane="best" departSpeed="max">
        <route edges="81096611#0 -169076559#2 -169076559#1 -143308523#9 -143308523#8 -143308523#7 -143308523#6 -143308523#5 -143308523#4 -143308523#3 -143308523#2 -143308523#1 -143308523#0 375685718#0 375685718#1 382647882"/>
    </vehicle>
    <vehicle id="veh49" type="veh_passenger" depart="86.58" departLane="best">
        <route edges="187122892#7 187122892#8 187122892#9 187122892#10 187122892#11 187122892#12 40191605#2 800655352 800655351 190928926#0 152839434#1 43660343#0 43660343#1 48298278#0 48858192#1 318210388#0 48858193#1 -578917008 -142575704#23 -142575704#22 -142575704#21 -142575704#20 -142575704#19 -142575704#17 -142575704#16 -142575704#15 -142575704#14 -142575704#13 -142575704#12 -142575704#10 142575704#10 142575704#12"/>
    </vehicle>
    <vehicle id="veh50" type="veh_passenger" depart="88.35" departLane="best">
        <route edges="-31050360#2 143308552#1 143308549#1 143308549#2 143308549#3 976351540#1 52036180#1 52036180#3 72230304#1 461514282#0 461514282#1 204721578#0 153021549#0 153021549#1 153021549#2"/>
    </vehicle>
    <vehicle id="veh51" type="veh_passenger" depart="90.12" departLane="best">
        <route edges="-142575695#2 -142575695#1 -142575695#0 -142575672#4 -142575672#3 -142575672#2 670062912#1 81639675#1 81639675#2 81639675#3 81639675#4 670062909#1 670062908#1 670062907#1 670062907#2 670062907#4 677933664#4 143308546#0 143308546#1 143308546#3 143308546#7 143308546#8 670062902#2 143308532#1 143308532#4 143308532#7 46039051#1 -141968853#2 -141968853#1 -141968853#0 141968814#0 141968814#1 141968844#6 141873658#0 141873658#1 -52460499#12 -52460499#11 -52460499#9 -52460499#8 -52460499#7 -52460499#6 -52460499#5 -52460499#3 -52460499#2 -52460499#1 -52460499#0 138624452#0 138624452#1 138624452#2 -138624434#0 138624477#2"/>
    </vehicle>
    <vehicle id="veh52" type="veh_passenger" depart="91.89" departLane="best">
        <route edges="141968844#8 141968844#1 141968844#2 141968844#3 141968844#4 141968823#0 141968823#1 141968853#0 141968853#1 141968853#2 46150483#0 46150483#1 206579057 206579058#1 46039050#1 46039050#4 46039050#7 143308542#1 143308542#3 143308542#4 143308542#6 143308542#8 143308542#12 143308542#13 143308542#14 143308542#15 143308552#1 143308549#1 143308549#2 143308549#3 976351540#1 52036180#1 52036180#3 -679901152#1 -45875465 152839428 -152839428 45875465 679901152#0"/>
    </vehicle>
    <vehicle id="veh53" type="veh_passenger" depart="93.65" departLane="best">
        <route edges="40191606#0 40191606#2 40191606#3 414563781 206889086#1 541676219 318210389#0 670062912#1 81639675#1 81639675#2 81639675#3 81639675#4 670062909#1 670062908#1 31050360#1 318210377#0 318210377#1 -887919960#0 -318210377#0 -31050360#2"/>
    </vehicle>
    <vehicle id="veh54" type="veh_passenger" depart="95.42" departLane="best">
        <route edges="142575685#1 -142575655#13 -142575655#12 -142575655#10 -887919959#4 -887919959#3 -887919959#2 -52081075#4 -52081075#3 -52081075#2 -142575674#5 -142575674#2 -142575674#1 142575656#11 142575656#12 142575656#14 142575656#15 147859766 147859765#1 147859765#2 147859765#3 147859765#4 147859765#7 147859765#8 -147859765#8"/>
    </vehicle>
    <vehicle id="veh55" type="veh_passenger" depart="97.19" departLane="best">
        <route edges="52460499#0 52460499#1 52460499#2 52460499#3 52460499#5 52460499#6 52460499#7 52460499#8 52460499#9 52460499#11 52460499#12 141968913#0 141968913#1 141968844#8 141968844#1 141968844#2 141968844#3 141968844#4 141968823#0 141968823#1 141968853#0 141968853#1 141968853#2 46150483#0 46150483#1 206579057 206579058#1 46039050#1 -142575679#9 -142575679#8 -142575679#7 -142575679#6 -142575679#5 -142575679#3 -142575679#2 -142575679#1 38915289#0"/>
    </vehicle>
    <vehicle id="veh56" type="veh_passenger" depart="98.95" departLane="best">
        <route edges="-318210378#0 -887919960#5 -887919960#4 -887919960#0 -318210377#0 -31050360#2 143308552#1 143308549#1 143308549#2 143308549#3 976351540#1 52036180#1 52036180#3 72230304#1 461514282#0 461514282#1 204721578#0 153021549#0 153021549#1"/>
    </vehicle>
    <vehicle id="veh57" type="veh_passenger" depart="100.72" departLane="best" departSpeed="max">
        <route edges="145586635 318210400#0 -206579060#1 16942869 -206579064#2 -206579064#0 206579061 206579062#0 206579062#2 46039050#1 46039050#4 -143308562#6 -143308562#4"/>
    </vehicle>
    <vehicle id="veh58" type="veh_passenger" depart="102.49" departLane="best">
        <route edges="314415495#11 314415495#12 314415495#13 314415495#14 314415495#15 314415495#16 314415495#17 314415495#19 314415495#21 314415495#22 314415495#25 318210361#0 318210361#1 670062909#1 670062908#1 670062907#1 670062907#2 670062907#4 677933664#4 143308546#0 143308546#1 143308546#3 143308546#7 143308546#8 670062902#2 143308532#1 143308532#4 -142575699#4 -142575699#3 142575699#3 142575699#4"/>
    </vehicle>
    <vehicle id="veh59" type="veh_passenger" depart="104.26" departLane="best">
        <route edges="-12749623 -318210387 382647882 12749623 81639678#0 81639678#1 48858193#1 -578917008 -318210371#0 -318210362 -318210367#0 -318210369 -190083608#0 320741895#0 326994261#1 -190083610#1 -190083610#0 180239858#0 -206579064#2 -206579064#0 206579061 206579062#0 206579062#2 46039051#1 -141968853#2 -141968853#1 -141968853#0 141968814#0 141968814#1 141968844#6 141873658#0 141873658#1 -52460499#12 -52460499#11 -52460499#9 -52460499#8 38568627#1 38568627#2 -38568627#2 -38568627#1"/>
    </vehicle>
    <vehicle id="veh60" type="veh_passenger" depart="106.02" departLane="best">
        <route edges="-135777011#4 -135777011#2 -135777011#1 135777010#0 135777010#1 135777010#2 -38915289#6 -38915289#5 -38915289#4 -38915289#1 -38915289#0 142575679#1 142575679#2 142575679#3 142575679#5 142575679#6 142575679#7 142575679#8 142575679#9 -142575699#4 -142575699#3 -142575699#2 -142575699#1 190083610#1 318210363#0 320741894#1 320741893 190083608#1 318210366 318210367#2 318210364#1 318210371#2 142575667#0 48858191#1 318210383#0 52243916#1"/>
    </vehicle>
    <vehicle id="veh61" type="veh_passenger" depart="107.79" departLane="best">
        <route edges="-334308447#4 -334308447#1 -334308447#0 -318210394#0 -52080655#2 670062912#1 81639675#1 81639675#2 81639675#3 81639675#4 670062909#1 670062908#1 670062907#1 670062907#2 670062907#4 -142575674#5 -142575674#2 -142575674#1 142575656#11 142575656#12 -142575656#12 -142575656#11"/>
    </vehicle>
    <vehicle id="veh62" type="veh_passenger" depart="109.56" departLane="best">
        <route edges="40191606#3 414563781 206889086#1 541676219 318210389#0 670062912#1"/>
    </vehicle>
    <vehicle id="veh63" type="veh_passenger" depart="111.32" departLane="best">
        <route edges="-142575674#2 -142575674#1 142575674#1 142575674#2 142575674#4 143308542#12 143308542#13 143308542#14 143308542#15 143308552#1 143308549#1 143308549#2 143308549#3 52080655#0 318210394#0 318210394#2 334308447#1 -142575677#1 -142575677#0 142575677#0 142575677#1"/>
    </vehicle>
    <vehicle id="veh64" type="veh_passenger" depart="113.09" departLane="best">
        <route edges="-142575657#1 143308521#9 143308521#11 143308521#12 143308521#13 -142575655#13 -142575655#12 -142575655#10 802021414#1 802021414#3 802021414#5 802021414#6 259466417#0 259466417#1"/>
    </vehicle>
    <vehicle id="veh65" type="veh_passenger" depart="114.86" departLane="best">