<?xml version="1.0" encoding="UTF-8"?>
<!-- generated on 2022-04-28 09:04:58.755428 by generateParkingAreas.py v1_12_0+2341-486b0e4e4ae
<configuration>
    <edge-type.remove value="highway.motorway,highway.motorway_link"/>
    <keep-all value="True"/>
    <net-file value="osm.net.xml"/>
    <output-file value="parking.add.xml"/>
    <random-capacity value="True"/>
</configuration>

-->
<additional xmlns:xsi="http://www.w3.org/2001/XMLSchema-instance" xsi:noNamespaceSchemaLocation="http://sumo.dlr.de/xsd/additional_file.xsd">
    <parkingArea id="pa-1013117571#1" lane="-1013117571#1_0" roadsideCapacity="0" length="5"/>
    <parkingArea id="pa-129519181#1" lane="-129519181#1_0" roadsideCapacity="25" length="5"/>
    <parkingArea id="pa-141968830#1" lane="-141968830#1_0" roadsideCapacity="104" length="5"/>
    <parkingArea id="pa-145009991#3" lane="-145009991#3_0" roadsideCapacity="12" length="5"/>
    <parkingArea id="pa-145586617#31" lane="-145586617#31_0" roadsideCapacity="7" length="5"/>
    <parkingArea id="pa-170149081#1" lane="-170149081#1_0" roadsideCapacity="73" length="5"/>
    <parkingArea id="pa-206579065" lane="-206579065_0" roadsideCapacity="0" length="5"/>
    <parkingArea id="pa-206579070" lane="-206579070_0" roadsideCapacity="6" length="5"/>
    <parkingArea id="pa-25368898#9" lane="-25368898#9_0" roadsideCapacity="32" length="5"/>
    <parkingArea id="pa-33234937#10" lane="-33234937#10_0" roadsideCapacity="0" length="5"/>
    <parkingArea id="pa-33234956#1" lane="-33234956#1_0" roadsideCapacity="12" length="5"/>
    <parkingArea id="pa-339558638#6" lane="-339558638#6_0" roadsideCapacity="4" length="5"/>
    <parkingArea id="pa-53087792#10" lane="-53087792#10_0" roadsideCapacity="23" length="5"/>
    <parkingArea id="pa-54039620#2" lane="-54039620#2_0" roadsideCapacity="1" length="5"/>
    <parkingArea id="pa-746625193#2" lane="-746625193#2_0" roadsideCapacity="10" length="5"/>
    <parkingArea id="pa-81535329#13" lane="-81535329#13_0" roadsideCapacity="162" length="5"/>
    <parkingArea id="pa1003191656#0" lane="1003191656#0_0" roadsideCapacity="66" length="5"/>
    <parkingArea id="pa1003191667#1" lane="1003191667#1_0" roadsideCapacity="43" length="5"/>
    <parkingArea id="pa10860201#0" lane="10860201#0_1" roadsideCapacity="3" length="5"/>
    <parkingArea id="pa11279544#0" lane="11279544#0_0" roadsideCapacity="11" length="5"/>
    <parkingArea id="pa11279822#0" lane="11279822#0_0" roadsideCapacity="0" length="5"/>
    <parkingArea id="pa11279858#0" lane="11279858#0_0" roadsideCapacity="5" length="5"/>
    <parkingArea id="pa11279895#0" lane="11279895#0_0" roadsideCapacity="15" length="5"/>
    <parkingArea id="pa145009985#0" lane="145009985#0_0" roadsideCapacity="5" length="5"/>
    <parkingArea id="pa145586617#0" lane="145586617#0_0" roadsideCapacity="95" length="5"/>
    <parkingArea id="pa145586622#0" lane="145586622#0_0" roadsideCapacity="4" length="5"/>
    <parkingArea id="pa192530508#0" lane="192530508#0_0" roadsideCapacity="106" length="5"/>
    <parkingArea id="pa194895343#0" lane="194895343#0_0" roadsideCapacity="3" length="5"/>
    <parkingArea id="pa194896804#0" lane="194896804#0_1" roadsideCapacity="70" length="5"/>
    <parkingArea id="pa204721580#0" lane="204721580#0_0" roadsideCapacity="31" length="5"/>
    <parkingArea id="pa206579065" lane="206579065_0" roadsideCapacity="0" length="5"/>
    <parkingArea id="pa206579066#0" lane="206579066#0_0" roadsideCapacity="5" length="5"/>
    <parkingArea id="pa206579067" lane="206579067_0" roadsideCapacity="7" length="5"/>
    <parkingArea id="pa206579068" lane="206579068_0" roadsideCapacity="0" length="5"/>
    <parkingArea id="pa206579070" lane="206579070_0" roadsideCapacity="2" length="5"/>
    <parkingArea id="pa206579071" lane="206579071_0" roadsideCapacity="17" length="5"/>
    <parkingArea id="pa206579073" lane="206579073_0" roadsideCapacity="2" length="5"/>
    <parkingArea id="pa216169544#0" lane="216169544#0_0" roadsideCapacity="2" length="5"/>
    <parkingArea id="pa216169546#0" lane="216169546#0_0" roadsideCapacity="2" length="5"/>
    <parkingArea id="pa22721677#0" lane="22721677#0_0" roadsideCapacity="43" length="5"/>
    <parkingArea id="pa22721677#4" lane="22721677#4_0" roadsideCapacity="7" length="5"/>
    <parkingArea id="pa22917228#0" lane="22917228#0_0" roadsideCapacity="4" length="5"/>
    <parkingArea id="pa22917233#0" lane="22917233#0_0" roadsideCapacity="5" length="5"/>
    <parkingArea id="pa25368898#0" lane="25368898#0_0" roadsideCapacity="27" length="5"/>
    <parkingArea id="pa25368900#0" lane="25368900#0_0" roadsideCapacity="10" length="5"/>
    <parkingArea id="pa25944425#0" lane="25944425#0_0" roadsideCapacity="6" length="5"/>
    <parkingArea id="pa26547171#0" lane="26547171#0_0" roadsideCapacity="0" length="5"/>
    <parkingArea id="pa26547171#2" lane="26547171#2_0" roadsideCapacity="0" length="5"/>
    <parkingArea id="pa26547172#0" lane="26547172#0_0" roadsideCapacity="2" length="5"/>
    <parkingArea id="pa26547179" lane="26547179_0" roadsideCapacity="8" length="5"/>
    <parkingArea id="pa266227880#0" lane="266227880#0_0" roadsideCapacity="22" length="5"/>
    <parkingArea id="pa318210393#0" lane="318210393#0_0" roadsideCapacity="2" length="5"/>
    <parkingArea id="pa318210393#2" lane="318210393#2_0" roadsideCapacity="0" length="5"/>
    <parkingArea id="pa33234937#0" lane="33234937#0_0" roadsideCapacity="51" length="5"/>
    <parkingArea id="pa33234956#0" lane="33234956#0_0" roadsideCapacity="17" length="5"/>
    <parkingArea id="pa339558638#0" lane="339558638#0_0" roadsideCapacity="8" length="5"/>
    <parkingArea id="pa348583831#0" lane="348583831#0_0" roadsideCapacity="2" length="5"/>
    <parkingArea id="pa348583833#0" lane="348583833#0_0" roadsideCapacity="12" length="5"/>
    <parkingArea id="pa407167843#0" lane="407167843#0_0" roadsideCapacity="98" length="5"/>
    <parkingArea id="pa431573403" lane="431573403_0" roadsideCapacity="2" length="5"/>
    <parkingArea id="pa431573404#0" lane="431573404#0_0" roadsideCapacity="3" length="5"/>
    <parkingArea id="pa431573405#0" lane="431573405#0_0" roadsideCapacity="4" length="5"/>
    <parkingArea id="pa431573406#0" lane="431573406#0_0" roadsideCapacity="15" length="5"/>
    <parkingArea id="pa431573407#0" lane="431573407#0_0" roadsideCapacity="6" length="5"/>
    <parkingArea id="pa472236111#0" lane="472236111#0_0" roadsideCapacity="16" length="5"/>
    <parkingArea id="pa52783765#0" lane="52783765#0_0" roadsideCapacity="0" length="5"/>
    <parkingArea id="pa53385386#0" lane="53385386#0_0" roadsideCapacity="25" length="5"/>
    <parkingArea id="pa54039595#0" lane="54039595#0_0" roadsideCapacity="14" length="5"/>
    <parkingArea id="pa54039620#0" lane="54039620#0_0" roadsideCapacity="8" length="5"/>
    <parkingArea id="pa541676222" lane="541676222_1" roadsideCapacity="1" length="5"/>
    <parkingArea id="pa663605951#0" lane="663605951#0_0" roadsideCapacity="2" length="5"/>
    <parkingArea id="pa72230301#0" lane="72230301#0_0" roadsideCapacity="23" length="5"/>
    <parkingArea id="pa745656019#0" lane="745656019#0_0" roadsideCapacity="23" length="5"/>
    <parkingArea id="pa81414476#0" lane="81414476#0_0" roadsideCapacity="7" length="5"/>
    <parkingArea id="pa862741106" lane="862741106_0" roadsideCapacity="1" length="5"/>
    <parkingArea id="pa862741108" lane="862741108_0" roadsideCapacity="0" length="5"/>
    <parkingArea id="pa868347084" lane="868347084_0" roadsideCapacity="17" length="5"/>
    <parkingArea id="pa872231978" lane="872231978_0" roadsideCapacity="4" length="5"/>
    <parkingArea id="pa97206934#0" lane="97206934#0_0" roadsideCapacity="20" length="5"/>
    <parkingArea id="pa998166558" lane="998166558_0" roadsideCapacity="0" length="5"/>
    <parkingArea id="paE0" lane="E0_0" roadsideCapacity="0" length="5"/>
</additional>
