<?xml version="1.0" encoding="UTF-8"?>
<!-- generated on 2022-04-28 09:04:59.109299 by addStops2Routes.py v1_12_0+2341-486b0e4e4ae
<configuration>
    <duration value="3600"/>
    <net-file value="osm.net.xml"/>
    <output-file value="parking.rou.xml"/>
    <parking-areas value="parking.add.xml"/>
    <route-files value="osm.passenger.trips.xml"/>
</configuration>

-->
<routes xmlns:xsi="http://www.w3.org/2001/XMLSchema-instance" xsi:noNamespaceSchemaLocation="http://sumo.dlr.de/xsd/routes_file.xsd">
    <vType id="veh_passenger" vClass="passenger"/>
    <trip depart="0.00" departLane="best" departSpeed="max" from="292525977" id="veh0" to="-145586617#31" type="veh_passenger">
        <stop duration="3600" parkingArea="pa-145586617#31"/>
    </trip>
    <trip depart="6.32" departLane="best" departSpeed="max" from="22721677#0" id="veh3" to="-170149081#1" type="veh_passenger">
        <stop duration="3600" parkingArea="pa-170149081#1"/>
    </trip>
    <trip depart="8.43" departLane="best" from="145586622#0" id="veh4" to="206579088" type="veh_passenger"/>
    <trip depart="12.65" departLane="best" from="292526263" id="veh6" to="22917228#0" type="veh_passenger">
        <stop duration="3600" parkingArea="pa22917228#0"/>
    </trip>
    <trip depart="14.76" departLane="best" from="145586622#0" id="veh7" to="26547171#0" type="veh_passenger">
        <stop duration="3600" parkingArea="pa26547171#0"/>
    </trip>
    <trip depart="16.86" departLane="best" from="431573407#0" id="veh8" to="-145586617#31" type="veh_passenger">
        <stop duration="3600" parkingArea="pa-145586617#31"/>
    </trip>
    <trip depart="18.97" departLane="best" from="431573407#0" id="veh9" to="318210393#0" type="veh_passenger">
        <stop duration="3600" parkingArea="pa318210393#0"/>
    </trip>
    <trip depart="21.08" departLane="best" from="206579070" id="veh10" to="1003191667#1" type="veh_passenger">
        <stop duration="3600" parkingArea="pa1003191667#1"/>
    </trip>
    <trip depart="23.19" departLane="best" from="862741108" id="veh11" to="145586607" type="veh_passenger"/>
    <trip depart="25.30" departLane="best" from="-339558638#6" id="veh12" to="-81535329#13" type="veh_passenger">
        <stop duration="3600" parkingArea="pa-81535329#13"/>
    </trip>
    <trip depart="27.40" departLane="best" from="541676222" id="veh13" to="26547171#2" type="veh_passenger">
        <stop duration="3600" parkingArea="pa26547171#2"/>
    </trip>
    <trip depart="31.62" departLane="best" from="663605951#0" id="veh15" to="25944425#0" type="veh_passenger">
        <stop duration="3600" parkingArea="pa25944425#0"/>
    </trip>
    <trip depart="33.73" departLane="best" from="318210393#2" id="veh16" to="-170149081#1" type="veh_passenger">
        <stop duration="3600" parkingArea="pa-170149081#1"/>
    </trip>
    <trip depart="35.84" departLane="best" from="194895343#0" id="veh17" to="145586607" type="veh_passenger"/>
    <trip depart="40.05" departLane="best" from="-54039620#2" id="veh19" to="145586607" type="veh_passenger"/>
    <trip depart="42.16" departLane="best" departSpeed="max" from="292525977" id="veh20" to="194896804#0" type="veh_passenger">
        <stop duration="3600" parkingArea="pa194896804#0"/>
    </trip>
    <trip depart="44.27" departLane="best" departSpeed="max" from="19791220" id="veh21" to="81414476#0" type="veh_passenger">
        <stop duration="3600" parkingArea="pa81414476#0"/>
    </trip>
    <trip depart="46.38" departLane="best" from="292526263" id="veh22" to="26547171#2" type="veh_passenger">
        <stop duration="3600" parkingArea="pa26547171#2"/>
    </trip>
    <trip depart="52.70" departLane="best" from="998166558" id="veh25" to="27077898#0" type="veh_passenger"/>
    <trip depart="54.81" departLane="best" from="54039620#0" id="veh26" to="407167843#0" type="veh_passenger">
        <stop duration="3600" parkingArea="pa407167843#0"/>
    </trip>
    <trip depart="56.92" departLane="best" from="194895343#0" id="veh27" to="-170149081#1" type="veh_passenger">
        <stop duration="3600" parkingArea="pa-170149081#1"/>
    </trip>
    <trip depart="59.02" departLane="best" from="206579066#0" id="veh28" to="145586607" type="veh_passenger"/>
    <trip depart="61.13" departLane="best" departSpeed="max" from="145586617#0" id="veh29" to="862741106" type="veh_passenger">
        <stop duration="3600" parkingArea="pa862741106"/>
    </trip>
    <trip depart="63.24" departLane="best" from="81414476#0" id="veh30" to="145586607" type="veh_passenger"/>
    <trip depart="65.35" departLane="best" from="292526263" id="veh31" to="206579065" type="veh_passenger">
        <stop duration="3600" parkingArea="pa206579065"/>
    </trip>
    <trip depart="69.57" departLane="best" from="26547179" id="veh33" to="145586607" type="veh_passenger"/>
    <trip depart="71.67" departLane="best" departSpeed="max" from="292525977" id="veh34" to="663605951#0" type="veh_passenger">
        <stop duration="3600" parkingArea="pa663605951#0"/>
    </trip>
    <trip depart="75.89" departLane="best" from="E0" id="veh36" to="206579088" type="veh_passenger"/>
    <trip depart="78.00" departLane="best" from="-746625193#2" id="veh37" to="26547179" type="veh_passenger">
        <stop duration="3600" parkingArea="pa26547179"/>
    </trip>
    <trip depart="80.11" departLane="best" from="431573405#0" id="veh38" to="206579068" type="veh_passenger">
        <stop duration="3600" parkingArea="pa206579068"/>
    </trip>
    <trip depart="82.21" departLane="best" departSpeed="max" from="-145009991#3" id="veh39" to="204721580#0" type="veh_passenger">
        <stop duration="3600" parkingArea="pa204721580#0"/>
    </trip>
    <trip depart="84.32" departLane="best" from="868347084" id="veh40" to="53385386#0" type="veh_passenger">
        <stop duration="3600" parkingArea="pa53385386#0"/>
    </trip>
    <trip depart="88.54" departLane="best" departSpeed="max" from="19791220" id="veh42" to="27077898#0" type="veh_passenger"/>
    <trip depart="90.65" departLane="best" from="-746625193#2" id="veh43" to="206579070" type="veh_passenger">
        <stop duration="3600" parkingArea="pa206579070"/>
    </trip>
    <trip depart="92.75" departLane="best" from="81414476#0" id="veh44" to="145586607" type="veh_passenger"/>
    <trip depart="94.86" departLane="best" departSpeed="max" from="25368900#0" id="veh45" to="11279858#0" type="veh_passenger">
        <stop duration="3600" parkingArea="pa11279858#0"/>
    </trip>
    <trip depart="99.08" departLane="best" from="204721580#0" id="veh47" to="27077898#0" type="veh_passenger"/>
    <trip depart="101.19" departLane="best" departSpeed="max" from="292525977" id="veh48" to="1003191667#1" type="veh_passenger">
        <stop duration="3600" parkingArea="pa1003191667#1"/>
    </trip>
    <trip depart="103.29" departLane="best" from="431573403" id="veh49" to="22721677#4" type="veh_passenger">
        <stop duration="3600" parkingArea="pa22721677#4"/>
    </trip>
    <trip depart="107.51" departLane="best" departSpeed="max" from="-1013117571#1" id="veh51" to="145586607" type="veh_passenger"/>
    <trip depart="109.62" departLane="best" departSpeed="max" from="-1013117571#1" id="veh52" to="745656019#0" type="veh_passenger">
        <stop duration="3600" parkingArea="pa745656019#0"/>
    </trip>
    <trip depart="111.73" departLane="best" from="81414476#0" id="veh53" to="431573406#0" type="veh_passenger">
        <stop duration="3600" parkingArea="pa431573406#0"/>
    </trip>
    <trip depart="113.83" departLane="best" from="206579066#0" id="veh54" to="-25368898#9" type="veh_passenger">
        <stop duration="3600" parkingArea="pa-25368898#9"/>
    </trip>
    <trip depart="115.94" departLane="best" from="81414476#0" id="veh55" to="862741106" type="veh_passenger">
        <stop duration="3600" parkingArea="pa862741106"/>
    </trip>
    <trip depart="120.16" departLane="best" from="-145586617#31" id="veh57" to="348583831#0" type="veh_passenger">
        <stop duration="3600" parkingArea="pa348583831#0"/>
    </trip>
    <trip depart="122.27" departLane="best" from="431573403" id="veh58" to="1003191667#1" type="veh_passenger">
        <stop duration="3600" parkingArea="pa1003191667#1"/>
    </trip>
    <trip depart="124.37" departLane="best" departSpeed="max" from="19791220" id="veh59" to="54039595#0" type="veh_passenger">
        <stop duration="3600" parkingArea="pa54039595#0"/>
    </trip>
    <trip depart="128.59" departLane="best" departSpeed="max" from="145586617#0" id="veh61" to="145586607" type="veh_passenger"/>
    <trip depart="130.70" departLane="best" from="998166558" id="veh62" to="27077902#0" type="veh_passenger"/>
    <trip depart="132.81" departLane="best" departSpeed="max" from="22721677#0" id="veh63" to="216169544#0" type="veh_passenger">
        <stop duration="3600" parkingArea="pa216169544#0"/>
    </trip>
    <trip depart="137.02" departLane="best" from="206579068" id="veh65" to="26547171#0" type="veh_passenger">
        <stop duration="3600" parkingArea="pa26547171#0"/>
    </trip>
    <trip depart="141.24" departLane="best" from="-206579065" id="veh67" to="26547179" type="veh_passenger">
        <stop duration="3600" parkingArea="pa26547179"/>
    </trip>
    <trip depart="143.35" departLane="best" from="194895343#0" id="veh68" to="72230301#0" type="veh_passenger">
        <stop duration="3600" parkingArea="pa72230301#0"/>
    </trip>
    <trip depart="145.45" departLane="best" from="663605951#0" id="veh69" to="-339558638#6" type="veh_passenger">
        <stop duration="3600" parkingArea="pa-339558638#6"/>
    </trip>
    <trip depart="149.67" departLane="best" departSpeed="max" from="145586617#0" id="veh71" to="1003191667#1" type="veh_passenger">
        <stop duration="3600" parkingArea="pa1003191667#1"/>
    </trip>
    <trip depart="153.89" departLane="best" from="22917233#0" id="veh73" to="407167843#0" type="veh_passenger">
        <stop duration="3600" parkingArea="pa407167843#0"/>
    </trip>
    <trip depart="155.99" departLane="best" from="431573407#0" id="veh74" to="145009985#0" type="veh_passenger">
        <stop duration="3600" parkingArea="pa145009985#0"/>
    </trip>
    <trip depart="160.21" departLane="best" from="998166558" id="veh76" to="-81535329#13" type="veh_passenger">
        <stop duration="3600" parkingArea="pa-81535329#13"/>
    </trip>
    <trip depart="162.32" departLane="best" from="216169544#0" id="veh77" to="145586607" type="veh_passenger"/>
    <trip depart="166.53" departLane="best" from="145009985#0" id="veh79" to="206579071" type="veh_passenger">
        <stop duration="3600" parkingArea="pa206579071"/>
    </trip>
    <trip depart="168.64" departLane="best" departSpeed="max" from="22721677#0" id="veh80" to="145586607" type="veh_passenger"/>
    <trip depart="170.75" departLane="best" from="19791219" id="veh81" to="72230301#0" type="veh_passenger">
        <stop duration="3600" parkingArea="pa72230301#0"/>
    </trip>
    <trip depart="172.86" departLane="best" departSpeed="max" from="22721677#0" id="veh82" to="53385386#0" type="veh_passenger">
        <stop duration="3600" parkingArea="pa53385386#0"/>
    </trip>
    <trip depart="174.97" departLane="best" from="26547172#0" id="veh83" to="-206579065" type="veh_passenger">
        <stop duration="3600" parkingArea="pa-206579065"/>
    </trip>
    <trip depart="177.07" departLane="best" from="E0" id="veh84" to="431573406#0" type="veh_passenger">
        <stop duration="3600" parkingArea="pa431573406#0"/>
    </trip>
    <trip depart="179.18" departLane="best" from="868347084" id="veh85" to="745656019#0" type="veh_passenger">
        <stop duration="3600" parkingArea="pa745656019#0"/>
    </trip>
    <trip depart="183.40" departLane="best" from="216169544#0" id="veh87" to="-25368898#9" type="veh_passenger">
        <stop duration="3600" parkingArea="pa-25368898#9"/>
    </trip>
    <trip depart="185.51" departLane="best" from="206579079" id="veh88" to="998166558" type="veh_passenger">
        <stop duration="3600" parkingArea="pa998166558"/>
    </trip>
    <trip depart="187.61" departLane="best" departSpeed="max" from="19791220" id="veh89" to="407167843#0" type="veh_passenger">
        <stop duration="3600" parkingArea="pa407167843#0"/>
    </trip>
    <trip depart="189.72" departLane="best" from="22721677#4" id="veh90" to="206579068" type="veh_passenger">
        <stop duration="3600" parkingArea="pa206579068"/>
    </trip>
    <trip depart="191.83" departLane="best" from="862741108" id="veh91" to="998166558" type="veh_passenger">
        <stop duration="3600" parkingArea="pa998166558"/>
    </trip>
    <trip depart="193.94" departLane="best" departSpeed="max" from="1003191656#0" id="veh92" to="145586607" type="veh_passenger"/>
    <trip depart="196.05" departLane="best" from="26547172#0" id="veh93" to="33234956#0" type="veh_passenger">
        <stop duration="3600" parkingArea="pa33234956#0"/>
    </trip>
    <trip depart="198.16" departLane="best" departSpeed="max" from="-145009991#3" id="veh94" to="25944425#0" type="veh_passenger">
        <stop duration="3600" parkingArea="pa25944425#0"/>
    </trip>
    <trip depart="200.26" departLane="best" departSpeed="max" from="25368900#0" id="veh95" to="472236111#0" type="veh_passenger">
        <stop duration="3600" parkingArea="pa472236111#0"/>
    </trip>
    <trip depart="202.37" departLane="best" departSpeed="max" from="1003191656#0" id="veh96" to="862741108" type="veh_passenger">
        <stop duration="3600" parkingArea="pa862741108"/>
    </trip>
    <trip depart="204.48" departLane="best" from="-25368898#9" id="veh97" to="11279895#0" type="veh_passenger">
        <stop duration="3600" parkingArea="pa11279895#0"/>
    </trip>
    <trip depart="206.59" departLane="best" departSpeed="max" from="292525977" id="veh98" to="292526263-AddedOffRampEdge" type="veh_passenger"/>
    <trip depart="208.70" departLane="best" from="194896804#0" id="veh99" to="1003191667#1" type="veh_passenger">
        <stop duration="3600" parkingArea="pa1003191667#1"/>
    </trip>
    <trip depart="210.80" departLane="best" departSpeed="max" from="292525977" id="veh100" to="26547172#0" type="veh_passenger">
        <stop duration="3600" parkingArea="pa26547172#0"/>
    </trip>
    <trip depart="212.91" departLane="best" departSpeed="max" from="22721677#0" id="veh101" to="25944425#0" type="veh_passenger">
        <stop duration="3600" parkingArea="pa25944425#0"/>
    </trip>
    <trip depart="217.13" departLane="best" from="194896804#0" id="veh103" to="206579065" type="veh_passenger">
        <stop duration="3600" parkingArea="pa206579065"/>
    </trip>
    <trip depart="219.24" departLane="best" from="206579067" id="veh104" to="339558638#0" type="veh_passenger">
        <stop duration="3600" parkingArea="pa339558638#0"/>
    </trip>
    <trip depart="223.45" departLane="best" departSpeed="max" from="19791220" id="veh106" to="81414476#0" type="veh_passenger">
        <stop duration="3600" parkingArea="pa81414476#0"/>
    </trip>
    <trip depart="225.56" departLane="best" from="206579079" id="veh107" to="10860201#0" type="veh_passenger">
        <stop duration="3600" parkingArea="pa10860201#0"/>
    </trip>
    <trip depart="227.67" departLane="best" from="54039595#0" id="veh108" to="318210393#2" type="veh_passenger">
        <stop duration="3600" parkingArea="pa318210393#2"/>
    </trip>
    <trip depart="229.78" departLane="best" departSpeed="max" from="292525977" id="veh109" to="998166558" type="veh_passenger">
        <stop duration="3600" parkingArea="pa998166558"/>
    </trip>
    <trip depart="231.88" departLane="best" from="292526263" id="veh110" to="-145586617#31" type="veh_passenger">
        <stop duration="3600" parkingArea="pa-145586617#31"/>
    </trip>
    <trip depart="233.99" departLane="best" from="472236111#0" id="veh111" to="145586607" type="veh_passenger"/>
    <trip depart="236.10" departLane="best" from="292526263-AddedOffRampEdge" id="veh112" to="81414476#0" type="veh_passenger">
        <stop duration="3600" parkingArea="pa81414476#0"/>
    </trip>
    <trip depart="238.21" departLane="best" departSpeed="max" from="19791220" id="veh113" to="26547171#2" type="veh_passenger">
        <stop duration="3600" parkingArea="pa26547171#2"/>
    </trip>
    <trip depart="242.42" departLane="best" departSpeed="max" from="25368900#0" id="veh115" to="72230301#0" type="veh_passenger">
        <stop duration="3600" parkingArea="pa72230301#0"/>
    </trip>
    <trip depart="244.53" departLane="best" from="541676222" id="veh116" to="-746625193#2" type="veh_passenger">
        <stop duration="3600" parkingArea="pa-746625193#2"/>
    </trip>
    <trip depart="246.64" departLane="best" departSpeed="max" from="22721677#0" id="veh117" to="145586607" type="veh_passenger"/>
    <trip depart="248.75" departLane="best" departSpeed="max" from="-1013117571#1" id="veh118" to="348583833#0" type="veh_passenger">
        <stop duration="3600" parkingArea="pa348583833#0"/>
    </trip>
    <trip depart="250.86" departLane="best" from="339558638#0" id="veh119" to="22917228#0" type="veh_passenger">
        <stop duration="3600" parkingArea="pa22917228#0"/>
    </trip>
    <trip depart="252.96" departLane="best" departSpeed="max" from="22721677#0" id="veh120" to="-145586617#31" type="veh_passenger">
        <stop duration="3600" parkingArea="pa-145586617#31"/>
    </trip>
    <trip depart="255.07" departLane="best" from="-206579070" id="veh121" to="541676222" type="veh_passenger">
        <stop duration="3600" parkingArea="pa541676222"/>
    </trip>
    <trip depart="259.29" departLane="best" from="54039595#0" id="veh123" to="25944425#0" type="veh_passenger">
        <stop duration="3600" parkingArea="pa25944425#0"/>
    </trip>
    <trip depart="261.40" departLane="best" from="206579066#0" id="veh124" to="663605951#0" type="veh_passenger">
        <stop duration="3600" parkingArea="pa663605951#0"/>
    </trip>
    <trip depart="263.50" departLane="best" from="431573406#0" id="veh125" to="53385386#0" type="veh_passenger">
        <stop duration="3600" parkingArea="pa53385386#0"/>
    </trip>
    <trip depart="265.61" departLane="best" from="19791219" id="veh126" to="-81535329#13" type="veh_passenger">
        <stop duration="3600" parkingArea="pa-81535329#13"/>
    </trip>
    <trip depart="267.72" departLane="best" from="431573404#0" id="veh127" to="541676222" type="veh_passenger">
        <stop duration="3600" parkingArea="pa541676222"/>
    </trip>
    <trip depart="269.83" departLane="best" from="216169546#0" id="veh128" to="26547172#0" type="veh_passenger">
        <stop duration="3600" parkingArea="pa26547172#0"/>
    </trip>
    <trip depart="271.94" departLane="best" departSpeed="max" from="1003191656#0" id="veh129" to="745656019#0" type="veh_passenger">
        <stop duration="3600" parkingArea="pa745656019#0"/>
    </trip>
    <trip depart="274.04" departLane="best" from="431573407#0" id="veh130" to="541676222" type="veh_passenger">
        <stop duration="3600" parkingArea="pa541676222"/>
    </trip>
    <trip depart="278.26" departLane="best" from="206579068" id="veh132" to="745656019#0" type="veh_passenger">
        <stop duration="3600" parkingArea="pa745656019#0"/>
    </trip>
    <trip depart="280.37" departLane="best" from="431573406#0" id="veh133" to="53385386#0" type="veh_passenger">
        <stop duration="3600" parkingArea="pa53385386#0"/>
    </trip>
    <trip depart="282.48" departLane="best" from="431573407#0" id="veh134" to="145586607" type="veh_passenger"/>
    <trip depart="284.58" departLane="best" from="431573405#0" id="veh135" to="-81535329#13" type="veh_passenger">
        <stop duration="3600" parkingArea="pa-81535329#13"/>
    </trip>
    <trip depart="286.69" departLane="best" from="745656019#0" id="veh136" to="52783765#0" type="veh_passenger">
        <stop duration="3600" parkingArea="pa52783765#0"/>
    </trip>
    <trip depart="288.80" departLane="best" from="192530508#0" id="veh137" to="431573404#0" type="veh_passenger">
        <stop duration="3600" parkingArea="pa431573404#0"/>
    </trip>
    <trip depart="290.91" departLane="best" from="22917228#0" id="veh138" to="145586607" type="veh_passenger"/>
    <trip depart="295.12" departLane="best" from="-129519181#1" id="veh140" to="145009985#0" type="veh_passenger">
        <stop duration="3600" parkingArea="pa145009985#0"/>
    </trip>
    <trip depart="297.23" departLane="best" from="868347084" id="veh141" to="145586607" type="veh_passenger"/>
    <trip depart="299.34" departLane="best" departSpeed="max" from="292525977" id="veh142" to="206579066#0" type="veh_passenger">
        <stop duration="3600" parkingArea="pa206579066#0"/>
    </trip>
    <trip depart="301.45" departLane="best" from="97206934#0" id="veh143" to="22721677#4" type="veh_passenger">
        <stop duration="3600" parkingArea="pa22721677#4"/>
    </trip>
    <trip depart="305.66" departLane="best" from="868347084" id="veh145" to="11279858#0" type="veh_passenger">
        <stop duration="3600" parkingArea="pa11279858#0"/>
    </trip>
    <trip depart="307.77" departLane="best" from="862741108" id="veh146" to="145586607" type="veh_passenger"/>
    <trip depart="309.88" departLane="best" from="-746625193#2" id="veh147" to="206579070" type="veh_passenger">
        <stop duration="3600" parkingArea="pa206579070"/>
    </trip>
    <trip depart="311.99" departLane="best" from="318210401#0" id="veh148" to="145586607" type="veh_passenger"/>
    <trip depart="314.10" departLane="best" departSpeed="max" from="292525977" id="veh149" to="206579088" type="veh_passenger"/>
    <trip depart="316.20" departLane="best" departSpeed="max" from="19791220" id="veh150" to="318210393#2" type="veh_passenger">
        <stop duration="3600" parkingArea="pa318210393#2"/>
    </trip>
    <trip depart="318.31" departLane="best" departSpeed="max" from="-1013117571#1" id="veh151" to="745656019#0" type="veh_passenger">
        <stop duration="3600" parkingArea="pa745656019#0"/>
    </trip>
    <trip depart="322.53" departLane="best" from="206579073" id="veh153" to="-339558638#6" type="veh_passenger">
        <stop duration="3600" parkingArea="pa-339558638#6"/>
    </trip>
    <trip depart="324.64" departLane="best" from="206579066#0" id="veh154" to="472236111#0" type="veh_passenger">
        <stop duration="3600" parkingArea="pa472236111#0"/>
    </trip>
    <trip depart="326.75" departLane="best" from="318210401#0" id="veh155" to="145586607" type="veh_passenger"/>
    <trip depart="328.85" departLane="best" from="216169544#0" id="veh156" to="145586607" type="veh_passenger"/>
    <trip depart="330.96" departLane="best" departSpeed="max" from="1003191656#0" id="veh157" to="206579068" type="veh_passenger">
        <stop duration="3600" parkingArea="pa206579068"/>
    </trip>
    <trip depart="337.29" departLane="best" from="206579065" id="veh160" to="22917228#0" type="veh_passenger">
        <stop duration="3600" parkingArea="pa22917228#0"/>
    </trip>
    <trip depart="339.39" departLane="best" departSpeed="max" from="-1013117571#1" id="veh161" to="145586607" type="veh_passenger"/>
    <trip depart="341.50" departLane="best" departSpeed="max" from="22721677#0" id="veh162" to="25944425#0" type="veh_passenger">
        <stop duration="3600" parkingArea="pa25944425#0"/>
    </trip>
    <trip depart="347.83" departLane="best" from="22917233#0" id="veh165" to="663605951#0" type="veh_passenger">
        <stop duration="3600" parkingArea="pa663605951#0"/>
    </trip>
    <trip depart="349.93" departLane="best" from="431573406#0" id="veh166" to="11279544#0" type="veh_passenger">
        <stop duration="3600" parkingArea="pa11279544#0"/>
    </trip>
    <trip depart="352.04" departLane="best" from="-33234937#10" id="veh167" to="216169544#0" type="veh_passenger">
        <stop duration="3600" parkingArea="pa216169544#0"/>
    </trip>
    <trip depart="354.15" departLane="best" from="472236111#0" id="veh168" to="339558638#0" type="veh_passenger">
        <stop duration="3600" parkingArea="pa339558638#0"/>
    </trip>
    <trip depart="356.26" departLane="best" from="292526263-AddedOffRampEdge" id="veh169" to="145586606" type="veh_passenger"/>
    <trip depart="358.37" departLane="best" from="541676222" id="veh170" to="-53087792#10" type="veh_passenger">
        <stop duration="3600" parkingArea="pa-53087792#10"/>
    </trip>
    <trip depart="360.47" departLane="best" departSpeed="max" from="22721677#0" id="veh171" to="26547179" type="veh_passenger">
        <stop duration="3600" parkingArea="pa26547179"/>
    </trip>
    <trip depart="362.58" departLane="best" from="145009985#0" id="veh172" to="318210393#0" type="veh_passenger">
        <stop duration="3600" parkingArea="pa318210393#0"/>
    </trip>
    <trip depart="366.80" departLane="best" from="292526263" id="veh174" to="-145586617#31" type="veh_passenger">
        <stop duration="3600" parkingArea="pa-145586617#31"/>
    </trip>
    <trip depart="368.91" departLane="best" from="11279544#0" id="veh175" to="862741108" type="veh_passenger">
        <stop duration="3600" parkingArea="pa862741108"/>
    </trip>
    <trip depart="371.01" departLane="best" from="26547171#0" id="veh176" to="-206579065" type="veh_passenger">
        <stop duration="3600" parkingArea="pa-206579065"/>
    </trip>
    <trip depart="373.12" departLane="best" from="19791219" id="veh177" to="472236111#0" type="veh_passenger">
        <stop duration="3600" parkingArea="pa472236111#0"/>
    </trip>
    <trip depart="375.23" departLane="best" from="22721677#4" id="veh178" to="431573403" type="veh_passenger">
        <stop duration="3600" parkingArea="pa431573403"/>
    </trip>
    <trip depart="377.34" departLane="best" from="292526263-AddedOffRampEdge" id="veh179" to="998166558" type="veh_passenger">
        <stop duration="3600" parkingArea="pa998166558"/>
    </trip>
    <trip depart="379.45" departLane="best" departSpeed="max" from="292525977" id="veh180" to="862741106" type="veh_passenger">
        <stop duration="3600" parkingArea="pa862741106"/>
    </trip>
    <trip depart="383.66" departLane="best" from="318210401#0" id="veh182" to="206579088" type="veh_passenger"/>
    <trip depart="387.88" departLane="best" from="22917233#0" id="veh184" to="145586607" type="veh_passenger"/>
    <trip depart="389.99" departLane="best" from="431573403" id="veh185" to="216169546#0" type="veh_passenger">
        <stop duration="3600" parkingArea="pa216169546#0"/>
    </trip>
    <trip depart="392.09" departLane="best" from="-206579070" id="veh186" to="145586607" type="veh_passenger"/>
    <trip depart="394.20" departLane="best" departSpeed="max" from="19791220" id="veh187" to="145586607" type="veh_passenger"/>
    <trip depart="396.31" departLane="best" from="26547171#2" id="veh188" to="1003191667#1" type="veh_passenger">
        <stop duration="3600" parkingArea="pa1003191667#1"/>
    </trip>
    <trip depart="398.42" departLane="best" from="194895343#0" id="veh189" to="318210393#0" type="veh_passenger">
        <stop duration="3600" parkingArea="pa318210393#0"/>
    </trip>
    <trip depart="400.53" departLane="best" from="318210399#0" id="veh190" to="-33234956#1" type="veh_passenger">
        <stop duration="3600" parkingArea="pa-33234956#1"/>
    </trip>
    <trip depart="402.63" departLane="best" from="216169546#0" id="veh191" to="22917228#0" type="veh_passenger">
        <stop duration="3600" parkingArea="pa22917228#0"/>
    </trip>
    <trip depart="406.85" departLane="best" departSpeed="max" from="22721677#0" id="veh193" to="72230301#0" type="veh_passenger">
        <stop duration="3600" parkingArea="pa72230301#0"/>
    </trip>
    <trip depart="408.96" departLane="best" departSpeed="max" from="292525977" id="veh194" to="318210393#0" type="veh_passenger">
        <stop duration="3600" parkingArea="pa318210393#0"/>
    </trip>
    <trip depart="411.07" departLane="best" from="206579079" id="veh195" to="-145586617#31" type="veh_passenger">
        <stop duration="3600" parkingArea="pa-145586617#31"/>
    </trip>
    <trip depart="413.17" departLane="best" from="206579071" id="veh196" to="339558638#0" type="veh_passenger">
        <stop duration="3600" parkingArea="pa339558638#0"/>
    </trip>
    <trip depart="415.28" departLane="best" from="541676222" id="veh197" to="862741108" type="veh_passenger">
        <stop duration="3600" parkingArea="pa862741108"/>
    </trip>
    <trip depart="417.39" departLane="best" departSpeed="max" from="22721677#0" id="veh198" to="33234956#0" type="veh_passenger">
        <stop duration="3600" parkingArea="pa33234956#0"/>
    </trip>
    <trip depart="421.61" departLane="best" departSpeed="max" from="22721677#0" id="veh200" to="-170149081#1" type="veh_passenger">
        <stop duration="3600" parkingArea="pa-170149081#1"/>
    </trip>
    <trip depart="425.82" departLane="best" from="216169544#0" id="veh202" to="10860201#0" type="veh_passenger">
        <stop duration="3600" parkingArea="pa10860201#0"/>
    </trip>
    <trip depart="427.93" departLane="best" from="22917228#0" id="veh203" to="1003191667#1" type="veh_passenger">
        <stop duration="3600" parkingArea="pa1003191667#1"/>
    </trip>
    <trip depart="430.04" departLane="best" departSpeed="max" from="292525977" id="veh204" to="-170149081#1" type="veh_passenger">
        <stop duration="3600" parkingArea="pa-170149081#1"/>
    </trip>
    <trip depart="434.25" departLane="best" departSpeed="max" from="-141968830#1" id="veh206" to="27077898#0" type="veh_passenger"/>
    <trip depart="436.36" departLane="best" departSpeed="max" from="1003191656#0" id="veh207" to="206579073" type="veh_passenger">
        <stop duration="3600" parkingArea="pa206579073"/>
    </trip>
    <trip depart="440.58" departLane="best" departSpeed="max" from="145586617#0" id="veh209" to="145586607" type="veh_passenger"/>
    <trip depart="444.79" departLane="best" from="348583831#0" id="veh211" to="431573406#0" type="veh_passenger">