<?xml version="1.0" encoding="UTF-8"?>

<!-- generated on 06.05.2019 14:16:11 by Eclipse SUMO netedit Version v1_2_0+0252-83989c20697
<configuration xmlns:xsi="http://www.w3.org/2001/XMLSchema-instance" xsi:noNamespaceSchemaLocation="http://sumo.dlr.de/xsd/netconvertConfiguration.xsd">

    <input>
        <sumo-net-file value="D:\erdm_ja\sip-svn-trunk\papers\DLR\SUMO_Conference2019\tutorial\5_parking.final\osm.net.xml"/>
    </input>

    <output>
        <output-file value="D:\erdm_ja\sip-svn-trunk\papers\DLR\SUMO_Conference2019\tutorial\5_parking.final\osm.net.xml"/>
        <output.street-names value="true"/>
    </output>

    <processing>
        <geometry.max-grade.fix value="false"/>
        <offset.disable-normalization value="true"/>
        <lefthand value="false"/>
    </processing>

    <junctions>
        <no-turnarounds value="true"/>
        <junctions.corner-detail value="5"/>
        <junctions.limit-turn-speed value="5.5"/>
        <rectangular-lane-cut value="false"/>
    </junctions>

    <pedestrian>
        <walkingareas value="true"/>
    </pedestrian>

    <netedit>
        <additional-files value="D:\erdm_ja\sip-svn-trunk\papers\DLR\SUMO_Conference2019\tutorial\5_parking.final\osm_stops.add.xml"/>
    </netedit>

</configuration>
-->

<additional xmlns:xsi="http://www.w3.org/2001/XMLSchema-instance" xsi:noNamespaceSchemaLocation="http://sumo.dlr.de/xsd/additional_file.xsd">
    <busStop id="-1383533494" name="Büchnerweg" lane="-23913524#5_1" friendlyPos="1" lines="164 162" startPos="75.80" endPos="90.80"/>
    <busStop id="-1383533578" lane="-137534616#0_1" friendlyPos="1" lines="164 162" startPos="26.31" endPos="41.31"/>
    <busStop id="-1560223555" lane="-314415495#3_1" friendlyPos="1" lines="260" startPos="89.28" endPos="104.28"/>
    <busStop id="-1560223790" name="Wilhelm-Ostwald-Straße" lane="-314415495#6_1" friendlyPos="1" lines="260" startPos="0.00" endPos="14.09"/>
    <busStop id="-1906421953" name="S Adlershof" lane="-45875465#0_1" friendlyPos="1" lines="N65 N68 N60" startPos="30.09" endPos="46.59"/>
    <busStop id="-385200818" name="Albert-Einstein-Straße" lane="-314415495#14_1" friendlyPos="1" lines="260" startPos="0.00" endPos="9.00"/>
    <busStop id="-766875150" name="Marktplatz Adlershof" lane="-179699939#0_0" friendlyPos="1" startPos="246.96" endPos="271.96">
        <access length="123.24" lane="-149611534#0_0" pos="213.80" friendlyPos="1"/>
        <access length="41.98" lane="-23788323#1_0" pos="6.93" friendlyPos="1"/>
        <access length="118.47" lane="149611534#0_0" pos="0.00" friendlyPos="1"/>
        <access length="29.38" lane="23788323#1_0" pos="212.54" friendlyPos="1"/>
        <access length="143.37" lane="579671878_0" pos="207.68" friendlyPos="1"/>
    </busStop>
    <busStop id="-945142208" name="Hans-Schmidt-Straße" lane="-318210378#3_1" friendlyPos="1" lines="163" startPos="14.77" endPos="29.77"/>
    <busStop id="1095078213" name="S Betriebsbahnhof Schöneweide" lane="431786577_0" friendlyPos="1" lines="S45 S8 S9 S46 S85" startPos="1653.78" endPos="1853.78"/>
    <busStop id="1383533459" name="Abtstraße" lane="24152326#0_1" friendlyPos="1" lines="164 162" startPos="60.14" endPos="75.14"/>
    <busStop id="1383533461" lane="318210360#0_1" friendlyPos="1" lines="163 N68" startPos="60.37" endPos="75.37"/>
    <busStop id="1383533462" lane="204721579#2_1" friendlyPos="1" lines="163 N68" startPos="90.15" endPos="105.15"/>
    <busStop id="1383533492" name="Büchnerweg" lane="23913524#5_1" friendlyPos="1" lines="164 162" startPos="38.06" endPos="53.06"/>
    <busStop id="1383533575" lane="149611526#0_1" friendlyPos="1" lines="164 162" startPos="23.98" endPos="38.98"/>
    <busStop id="1383533577" lane="137534616#0_1" friendlyPos="1" lines="164 162" startPos="34.88" endPos="49.88"/>
    <busStop id="1383533597" name="S Adlershof" lane="152839426_1" friendlyPos="1" lines="N60 N65 N68" startPos="0.00" endPos="7.50"/>
    <busStop id="1560223236" lane="143308587#1_1" friendlyPos="1" lines="160 162 N60 164" startPos="15.17" endPos="30.17"/>
    <busStop id="1656195133" name="S Adlershof" lane="206889086#1_1" friendlyPos="1" lines="162 163 N60 260 164" startPos="21.84" endPos="29.34"/>
    <busStop id="1704693343" name="Karl-Ziegler-Straße" lane="158236729#0_0" friendlyPos="1" lines="61 63" startPos="0" endPos="20">
        <access length="9.48" lane="142575685#0_0" pos="50.63" friendlyPos="1"/>
        <access length="20.62" lane="142575685#1_0" pos="0.00" friendlyPos="1"/>
        <access length="13.10" lane="142575686#1_0" pos="21.65" friendlyPos="1"/>
        <access length="17.14" lane="569694705#0_0" pos="1.39" friendlyPos="1"/>
        <access length="14.79" lane="569694705#2_0" pos="0.00" friendlyPos="1"/>
    </busStop>
    <busStop id="1704693369" name="Karl-Ziegler-Straße" lane="158236384#0_0" friendlyPos="1" lines="61 63" startPos="0.00" endPos="12.50">
        <access length="13.37" lane="142575685#0_0" pos="18.31" friendlyPos="1"/>
        <access length="8.41" lane="142575686#2_0" pos="8.41" friendlyPos="1"/>
        <access length="11.84" lane="142575686#3_0" pos="0.00" friendlyPos="1"/>
        <access length="20.30" lane="397678498#1_0" pos="27.91" friendlyPos="1"/>
        <access length="13.09" lane="397678504#2_0" pos="17.97" friendlyPos="1"/>
    </busStop>
    <busStop id="1704693381" name="Magnusstraße" lane="220198810#0_0" friendlyPos="1" lines="61 63" startPos="6.09" endPos="31.09">
        <access length="23.98" lane="143308542#5_0" pos="2.79" friendlyPos="1"/>
        <access length="19.64" lane="143308542#6_0" pos="3.21" friendlyPos="1"/>
        <access length="20.40" lane="143308546#13_0" pos="53.33" friendlyPos="1"/>
        <access length="20.97" lane="143308546#14_0" pos="0.00" friendlyPos="1"/>
        <access length="10.05" lane="81096589#0_0" pos="4.38" friendlyPos="1"/>
    </busStop>
    <busStop id="1704693389" name="Magnusstraße" lane="220198808#0_0" friendlyPos="1" lines="61 63" startPos="15.48" endPos="38.00">
        <access length="15.58" lane="143308542#6_0" pos="49.99" friendlyPos="1"/>
        <access length="23.82" lane="143308542#7_0" pos="0.00" friendlyPos="1"/>
        <access length="24.46" lane="143308546#13_0" pos="6.94" friendlyPos="1"/>
        <access length="17.68" lane="81096580#0_0" pos="0.18" friendlyPos="1"/>
        <access length="15.40" lane="81096580#2_0" pos="0.00" friendlyPos="1"/>
    </busStop>
    <busStop id="1704693444" name="S Adlershof" lane="179699938#2_0" friendlyPos="1" lines="61 63" startPos="33.49" endPos="49.70">
        <access length="9.34" lane="220194458#3_0" pos="0.90" friendlyPos="1"/>
        <access length="8.60" lane="458921214_0" pos="2.12" friendlyPos="1"/>
        <access length="7.78" lane="540221756_0" pos="0.59" friendlyPos="1"/>
        <access length="10.66" lane="82710639#1_0" pos="0.19" friendlyPos="1"/>
        <access length="10.22" lane="82710639#2_0" pos="0.00" friendlyPos="1"/>
    </busStop>
    <busStop id="1704693451" name="Walther-Nernst-Straße" lane="206889079#9_0" friendlyPos="1" lines="61 63" startPos="34.18" endPos="59.18">
        <access length="11.39" lane="142575735#0_0" pos="6.74" friendlyPos="1"/>
        <access length="23.50" lane="143308546#2_0" pos="14.44" friendlyPos="1"/>
        <access length="19.13" lane="143308546#3_0" pos="3.97" friendlyPos="1"/>
        <access length="24.80" lane="143308546#4_0" pos="0.00" friendlyPos="1"/>
        <access length="18.20" lane="55939165#1_0" pos="14.41" friendlyPos="1"/>
    </busStop>
    <busStop id="1704693457" name="Walther-Nernst-Straße" lane="220198808#3_0" friendlyPos="1" lines="61 63" startPos="83.25" endPos="103.22">
        <access length="20.26" lane="143308542#16_0" pos="18.76" friendlyPos="1"/>
        <access length="13.39" lane="81096606#0_0" pos="6.90" friendlyPos="1"/>
        <access length="13.32" lane="81096606#2_0" pos="0.10" friendlyPos="1"/>
        <access length="11.57" lane="81096606#3_0" pos="0.19" friendlyPos="1"/>
        <access length="11.31" lane="81096606#4_0" pos="0.00" friendlyPos="1"/>
    </busStop>
    <busStop id="1756300980" name="S Adlershof" lane="20553068#2_1" friendlyPos="1" startPos="69.66" endPos="77.16"/>
    <busStop id="1862990707" name="Otto-Franke-Straße" lane="153021549#1_1" friendlyPos="1" lines="163 N68" startPos="31.80" endPos="46.80"/>
    <busStop id="2050022025" name="Hermann-Dorner-Allee" lane="70130339#0_1" friendlyPos="1" lines="163" startPos="86.28" endPos="101.28"/>
    <busStop id="2050022029" name="Hermann-Dorner-Allee" lane="231626692#1_1" friendlyPos="1" lines="163" startPos="168.37" endPos="183.37"/>
    <busStop id="301331956" name="Magnusstraße" lane="143308546#13_1" friendlyPos="1" lines="162 N60 164" startPos="39.41" endPos="54.41"/>
    <busStop id="30499115" name="S Adlershof" lane="4782367_0" friendlyPos="1" lines="S45 S8 S9 S46 S85" startPos="0.00" endPos="182.81">
        <access length="39.37" lane="540388566_0" pos="0.10" friendlyPos="1"/>
        <access length="34.25" lane="540388567#0_0" pos="0.00" friendlyPos="1"/>
        <access length="37.11" lane="540388567#1_0" pos="0.00" friendlyPos="1"/>
        <access length="42.65" lane="72230304#1_0" pos="81.62" friendlyPos="1"/>
        <access length="39.96" lane="85088365_0" pos="10.27" friendlyPos="1"/>
    </busStop>
    <busStop id="30499135" name="S Betriebsbahnhof Schöneweide" lane="431786563_0" friendlyPos="1" lines="S45 S8 S9 S46 S85" startPos="701.15" endPos="901.15"/>
    <busStop id="306982602" name="Magnusstraße" lane="143308542#6_1" friendlyPos="1" lines="162 164 N60" startPos="14.23" endPos="29.23"/>
    <busStop id="3508654675" name="S Adlershof" lane="22917995_0" friendlyPos="1" lines="S45 S8 S9 S46 S85" startPos="0.00" endPos="55.51">
        <access length="15.78" lane="140162593_0" pos="0.00" friendlyPos="1"/>
        <access length="10.31" lane="206889086#1_0" pos="11.42" friendlyPos="1"/>
        <access length="15.88" lane="218797686#0_0" pos="2.35" friendlyPos="1"/>
        <access length="16.17" lane="540221753_0" pos="0.09" friendlyPos="1"/>
        <access length="10.19" lane="540388579#1_0" pos="9.35" friendlyPos="1"/>
    </busStop>
    <busStop id="3812676495" name="Otto-Franke-Straße" lane="153021553#1_1" friendlyPos="1" lines="163 N68" startPos="32.30" endPos="47.30"/>
    <busStop id="385200819" name="Albert-Einstein-Straße" lane="314415495#13_1" friendlyPos="1" lines="260" startPos="3.95" endPos="18.95"/>
    <busStop id="3893875078" name="Otto-Franke-Straße" lane="204721578#0_1" friendlyPos="1" startPos="44.07" endPos="59.07"/>
    <busStop id="464396487" lane="143308542#1_1" friendlyPos="1" lines="162 164 N60" startPos="29.43" endPos="44.43"/>
    <busStop id="464396566" name="Walther-Nernst-Straße" lane="143308546#2_1" friendlyPos="1" lines="162 N60 164" startPos="2.17" endPos="17.17"/>
    <busStop id="464396589" name="Walther-Nernst-Straße" lane="143308542#16_1" friendlyPos="1" lines="162 164 N60" startPos="1.10" endPos="16.10"/>
    <busStop id="5315085711" name="S Adlershof" lane="458921214_1" friendlyPos="1" lines="162 163 260 164 N60" startPos="20.57" endPos="32.26"/>
    <busStop id="583899039" name="S Adlershof" lane="218797686#0_1" friendlyPos="1" lines="61 63" startPos="0.00" endPos="12.50"/>
    <busStop id="664208807" name="Wilhelm-Ostwald-Straße" lane="314415495#6_1" friendlyPos="1" lines="260" startPos="42.35" endPos="57.35"/>
    <busStop id="671564316" lane="143308532#2_1" friendlyPos="1" lines="160" startPos="0.00" endPos="13.45"/>
    <busStop id="766875150" name="Marktplatz Adlershof" lane="179699939#0_0" friendlyPos="1" startPos="165.42" endPos="190.42">
        <access length="123.24" lane="-149611534#0_0" pos="213.80" friendlyPos="1"/>
        <access length="41.98" lane="-23788323#1_0" pos="6.93" friendlyPos="1"/>
        <access length="118.47" lane="149611534#0_0" pos="0.00" friendlyPos="1"/>
        <access length="29.38" lane="23788323#1_0" pos="212.54" friendlyPos="1"/>
        <access length="143.37" lane="579671878_0" pos="207.68" friendlyPos="1"/>
    </busStop>
    <busStop id="837696418" name="James-Franck-Straße" lane="143308532#5_1" friendlyPos="1" lines="160" startPos="141.28" endPos="156.28"/>
    <busStop id="837696524" name="James-Franck-Straße" lane="46039050#1_1" friendlyPos="1" lines="160" startPos="211.35" endPos="226.35"/>
    <busStop id="945142098" name="Hans-Schmidt-Straße" lane="318210378#4_1" friendlyPos="1" lines="163" startPos="14.55" endPos="29.55"/>
    <busStop id="945142241" lane="314415495#1_1" friendlyPos="1" lines="260" startPos="29.38" endPos="44.38"/>
</additional>
