<?xml version="1.0" encoding="UTF-8"?>

<!-- generated on Wed May  1 00:03:10 2019 by Eclipse SUMO polyconvert Version v1_2_0+0149-6b40db9d1b
<configuration xmlns:xsi="http://www.w3.org/2001/XMLSchema-instance" xsi:noNamespaceSchemaLocation="http://sumo.dlr.de/xsd/polyconvertConfiguration.xsd">

    <input>
        <net-file value="osm.net.xml"/>
        <osm-files value="osm_bbox.osm.xml"/>
        <osm.keep-full-type value="true"/>
    </input>

    <output>
        <output-file value="osm.poly.xml"/>
    </output>

    <processing>
        <poi-layer-offset value="5"/>
    </processing>

    <report>
        <verbose value="true"/>
    </report>

</configuration>
-->

<additional xmlns:xsi="http://www.w3.org/2001/XMLSchema-instance" xsi:noNamespaceSchemaLocation="http://sumo.dlr.de/xsd/additional_file.xsd">
    <location netOffset="-398790.46,-5809139.45" convBoundary="-3841.19,-5971.70,4371.95,4156.59" origBoundary="13.453860,52.368780,13.575739,52.459757" projParameter="+proj=utm +zone=33 +ellps=WGS84 +datum=WGS84 +units=m +no_defs"/>

    <poly id="114033003" type="amenity.parking" color="184,184,179" fill="1" layer="-1.00" shape="1271.744988,578.130569 1266.147538,573.459903 1261.422103,569.528127 1283.587549,543.062973 1288.416781,547.081675 1293.910221,551.654340 1271.744988,578.130569"/>
    <poly id="114033007" type="amenity.parking" color="184,184,179" fill="1" layer="-1.00" shape="1275.610613,581.590263 1281.049864,586.175142 1286.793452,591.009753 1309.283233,564.437980 1303.491143,559.559821 1298.107179,555.018300 1275.610613,581.590263"/>
    <poly id="114188889" type="landuse.industrial" color="209,209,204" fill="0" layer="-3.00" shape="1564.040093,420.092157 1574.553329,408.574226"/>
    <poly id="114207226" type="amenity.parking" color="184,184,179" fill="1" layer="-1.00" shape="1281.181778,425.424163 1286.301631,419.645409 1290.364432,415.067589 1272.149083,399.003769 1262.973234,409.360239 1281.181778,425.424163"/>
    <poly id="114207228" type="amenity.parking" color="184,184,179" fill="1" layer="-1.00" shape="1269.089380,437.520072 1273.040187,433.122543 1277.576416,428.078886 1260.347121,412.673791 1251.867114,422.125990 1269.089380,437.520072"/>
    <poly id="114207232" type="landuse.grass" color="194,194,130" fill="0" layer="-3.00" shape="1266.464833,459.304010 1272.779044,451.720668 1273.887773,450.385162"/>
    <poly id="114207233" type="landuse.grass" color="194,194,130" fill="1" layer="-3.00" shape="1295.564049,460.715095 1285.712147,451.869359 1280.272305,447.262230 1289.964877,435.893876 1296.827172,427.832099 1313.208968,442.375532 1295.564049,460.715095"/>
    <poly id="114207537" type="building.yes" color="255,230,230" fill="0" layer="-1.00" shape="1408.072152,521.050217 1413.263285,524.138168"/>
    <poly id="114285330" type="landuse.commercial" color="209,209,204" fill="0" layer="-3.00" shape="2153.517771,425.454377 2156.840669,428.335972 2157.754493,429.129801 2160.385163,431.413383 2163.223386,433.870809"/>
    <poly id="114285335" type="leisure.playground" color="207,245,201" fill="1" layer="-2.00" shape="2155.182839,389.281311 2153.897192,397.374079 2151.325036,402.043504 2148.948077,400.199880 2147.695715,399.145836 2146.190694,402.091369 2140.940077,399.070615 2141.152242,395.761710 2154.003533,384.765391 2155.182839,389.281311"/>
    <poly id="114355949" type="amenity.parking" color="184,184,179" fill="0" layer="-1.00" shape="2172.929622,417.007400 2168.090858,412.821142 2172.631434,407.611354 2174.770641,409.470907 2175.415347,408.723553 2176.133496,407.907958 2174.188246,406.222523 2180.517191,398.962771 2185.148403,402.975196"/>
    <poly id="114692653" type="building.yes" color="255,230,230" fill="0" layer="-1.00" shape="1485.200205,418.041864 1484.083034,419.299603"/>
    <poly id="114692655" type="building.yes" color="255,230,230" fill="1" layer="-1.00" shape="1459.378833,399.183139 1469.152874,401.187848 1467.969848,406.908752 1458.195592,404.892923 1459.378833,399.183139"/>
    <poly id="114692702" type="landuse.commercial" color="209,209,204" fill="0" layer="-3.00" shape="1574.553329,408.574226 1588.145362,421.428215"/>
    <poly id="114696373" type="landuse.industrial" color="209,209,204" fill="0" layer="-3.00" shape="1496.540384,444.604945 1502.897918,440.815250 1524.902468,459.640349"/>
    <poly id="114697065" type="landuse.grass" color="194,194,130" fill="0" layer="-3.00" shape="1326.681918,442.646879 1300.619151,418.297261"/>
    <poly id="114697179" type="amenity.parking" color="184,184,179" fill="1" layer="-1.00" shape="1227.284117,628.315443 1228.636325,629.923564 1232.769313,634.824264 1241.559620,624.597956 1266.488454,595.906776 1264.310212,594.148543 1259.395359,589.597523 1227.284117,628.315443"/>
    <poly id="114697180" type="building.yes" color="255,230,230" fill="1" layer="-1.00" shape="1229.049434,638.527275 1223.536506,635.000996 1220.266893,640.107952 1225.779592,643.623105 1229.049434,638.527275"/>
    <poly id="114814155" type="building.yes" color="255,230,230" fill="0" layer="-1.00" shape="1525.065539,408.665442 1513.344334,398.855774"/>
    <poly id="114952399" type="landuse.grass" color="194,194,130" fill="0" layer="-3.00" shape="1275.899668,447.974249 1281.948285,440.707869 1287.731521,433.769570 1293.607697,426.718121 1300.619151,418.297261"/>
    <poly id="115758495" type="building.yes" color="255,230,230" fill="1" layer="-1.00" shape="2381.085148,420.204922 2371.175166,412.092602 2364.004785,420.815493 2373.914762,428.927800 2381.085148,420.204922"/>
    <poly id="115758496" type="building.yes" color="255,230,230" fill="1" layer="-1.00" shape="2378.778116,404.584956 2374.827579,409.382120 2379.156644,412.922352 2383.100607,408.136451 2378.778116,404.584956"/>
    <poly id="115758497" type="building.yes" color="255,230,230" fill="1" layer="-1.00" shape="2359.493733,420.739332 2350.196196,432.253324 2327.886584,414.332031 2337.177308,402.818133 2359.493733,420.739332"/>
    <poly id="115758498" type="building.yes" color="255,230,230" fill="1" layer="-1.00" shape="2374.412324,401.924470 2364.916066,413.030742 2355.103329,404.682836 2364.606381,393.576409 2374.412324,401.924470"/>
    <poly id="115758499" type="building.yes" color="255,230,230" fill="1" layer="-1.00" shape="2356.374289,386.376135 2350.592475,381.963885 2341.260265,394.123936 2347.048873,398.536039 2356.374289,386.376135"/>
    <poly id="115921102" type="waterway.drain" color="181,209,209" fill="0" layer="-4.00" shape="1413.221962,602.816263 1342.999628,542.400400"/>
    <poly id="116371687" type="building.yes" color="255,230,230" fill="0" layer="-1.00" shape="1465.393071,481.020667 1461.223212,488.371072 1457.981731,491.530106 1453.005192,494.657603"/>
    <poly id="116372813" type="building.yes" color="255,230,230" fill="0" layer="-1.00" shape="1465.393071,481.020667 1463.067076,482.369709 1460.480493,483.278972 1457.394459,483.708798 1454.984726,483.613066 1452.495940,482.973730 1450.465864,482.147056 1448.429490,480.675158 1446.097903,478.063200 1444.767982,475.875977 1444.037741,473.409537 1443.906451,468.282772 1445.235193,465.051293 1447.191242,461.896094 1449.911178,459.849189 1452.471982,458.339600 1457.625826,457.578501 1462.037106,458.434732 1464.849914,459.957636"/>
    <poly id="116391626" type="landuse.grass" color="194,194,130" fill="1" layer="-3.00" shape="1586.526597,336.207988 1593.516054,344.455860 1607.817362,355.047929 1617.415083,349.023006 1616.851769,344.049646 1614.427542,341.228079 1609.815007,343.869582 1595.636613,332.295862 1596.680503,330.104990 1591.944809,329.355352 1586.526597,336.207988"/>
    <poly id="116391627" type="building.yes" color="255,230,230" fill="1" layer="-1.00" shape="1567.329355,335.083956 1566.759324,328.775528 1569.515917,328.530481 1569.096652,323.954767 1574.596019,323.453832 1575.592097,334.337838 1567.329355,335.083956"/>
    <poly id="118132032" type="building.yes" color="255,230,230" fill="1" layer="-1.00" shape="945.416479,881.295942 944.233418,883.645583 943.207616,885.702718 942.139447,888.016635 944.619512,889.234480 943.039913,892.482357 911.889451,877.095547 913.245610,874.230532 917.164918,875.986452 918.217678,873.917633 919.309413,871.759005 921.788811,872.943472 922.879627,870.406553 934.481190,876.011338 945.416479,881.295942"/>
    <poly id="118132044" type="building.yes" color="255,230,230" fill="1" layer="-1.00" shape="904.539612,855.882140 896.485348,872.124785 845.884667,847.154779 853.938811,830.912050 904.539612,855.882140"/>
    <poly id="118132050" type="landuse.greenfield" color="242,242,204" fill="1" layer="-3.00" shape="1502.982739,1644.739370 1455.770620,1698.015955 1488.642747,1729.215572 1497.604393,1737.556752 1666.955328,1605.285294 1747.312009,1543.484167 1800.048617,1499.523096 1841.235875,1461.782410 1888.088674,1420.689665 1915.088053,1395.219997 1978.171946,1319.986006 1979.878518,1317.948726 1972.150003,1312.741754 1857.898310,1247.667471 1831.157549,1276.536979 1744.155384,1374.143411 1568.932830,1569.463871 1625.410588,1617.888310 1610.678994,1635.199789 1548.138411,1686.126973 1502.982739,1644.739370"/>
    <poly id="118132057" type="amenity.research_institute" color="237,199,199" fill="0" layer="-1.00" shape="1010.109516,787.267863 979.567189,852.726575"/>
    <poly id="118132057#1" type="landuse.commercial" color="209,209,204" fill="0" layer="-3.00" shape="1010.109516,787.267863 979.567189,852.726575"/>
    <poly id="118132465" type="landuse.industrial" color="209,209,204" fill="1" layer="-3.00" shape="2383.004599,341.467332 2373.295117,343.331601 2342.818270,372.506832 2291.643831,435.456643 2235.413168,502.937292 2353.077052,601.487837 2486.523809,710.961883 2615.530218,566.551191 2615.445642,562.335883 2557.037297,505.894257 2514.881879,464.948964 2418.676137,367.665533 2406.616835,355.835532 2406.327644,358.367101 2394.965098,349.393801 2383.004599,341.467332"/>
    <poly id="118132466" type="building.yes" color="255,230,230" fill="1" layer="-1.00" shape="2385.859604,571.031183 2403.248916,585.135056 2442.073882,537.533484 2424.677502,523.418489 2385.859604,571.031183"/>
    <poly id="118132967" type="landuse.greenfield" color="242,242,204" fill="1" layer="-3.00" shape="1020.777664,422.169815 1016.308871,378.132128 941.268713,385.693357 767.003952,403.260712 763.899439,448.376564 769.501734,447.928251 1020.777664,422.169815"/>
    <poly id="118132967#1" type="natural.grassland" color="140,196,107" fill="1" layer="-4.00" shape="1020.777664,422.169815 1016.308871,378.132128 941.268713,385.693357 767.003952,403.260712 763.899439,448.376564 769.501734,447.928251 1020.777664,422.169815"/>
    <poly id="118132969" type="man_made.wastewater_plant" color="255,230,230" fill="1" layer="-1.00" shape="1018.801456,463.023126 1016.268977,435.224435 1022.032434,434.672985 1020.777664,422.169815 769.501734,447.928251 766.510386,490.260093 853.321227,496.953947 853.153665,500.072870 876.814680,501.970848 877.073808,498.672028 981.356663,506.313263 976.935702,467.303926 1018.801456,463.023126"/>
    <poly id="118132971" type="landuse.construction" color="194,194,130" fill="1" layer="-3.00" shape="873.659566,513.006283 868.958813,569.926785 920.693747,576.358982 962.671426,582.612452 1026.571143,597.910434 1033.447094,593.553205 1035.592206,558.649276 1032.582507,524.785084 873.659566,513.006283"/>
    <poly id="118133067" type="landuse.village_green" color="242,242,204" fill="1" layer="-3.00" shape="981.356663,506.313263 981.556391,509.769619 994.578684,510.961639 1030.970631,514.447787 1030.760300,512.471508 1026.402491,471.535919 1025.972986,467.483402 1018.801456,463.023126 976.935702,467.303926 981.356663,506.313263"/>
    <poly id="118133068" type="building.yes" color="255,230,230" fill="1" layer="-1.00" shape="890.583770,485.433500 880.083999,484.535181 882.986240,450.784014 893.479283,451.682479 890.583770,485.433500"/>
    <poly id="118133069" type="building.yes" color="255,230,230" fill="1" layer="-1.00" shape="999.543891,455.259864 981.142435,457.126134 979.400898,440.104300 997.802190,438.226902 999.543891,455.259864"/>
    <poly id="118133070" type="natural.wetland" color="181,209,209" fill="1" layer="-4.00" shape="900.506474,446.732261 897.454510,492.147343 975.177239,497.804922 969.112507,439.568660 900.506474,446.732261"/>
    <poly id="118133071" type="natural.wetland" color="181,209,209" fill="1" layer="-4.00" shape="853.251947,488.565762 815.275295,485.435970 772.440981,481.916173 773.781025,459.624066 855.946234,450.968950 853.251947,488.565762"/>
    <poly id="118261965" type="waterway.drain" color="181,209,209" fill="0" layer="-4.00" shape="1102.265650,136.464996 1134.492195,253.273926"/>
    <poly id="118376282" type="building.yes" color="255,230,230" fill="1" layer="-1.00" shape="2544.697081,1057.535421 2495.887523,1028.751972 2486.785355,1044.189538 2535.594821,1072.972896 2544.697081,1057.535421"/>
    <poly id="118376301" type="building.yes" color="255,230,230" fill="1" layer="-1.00" shape="2572.529150,1024.497817 2551.638304,1006.613880 2520.948885,980.348163 2511.372137,991.466931 2562.952603,1035.627607 2572.529150,1024.497817"/>
    <poly id="118376410" type="building.yes" color="255,230,230" fill="1" layer="-1.00" shape="2542.935881,1042.983715 2547.724490,1034.219870 2533.043490,1026.191946 2528.248100,1034.955941 2542.935881,1042.983715"/>
    <poly id="118376528" type="landuse.brownfield" color="194,194,130" fill="1" layer="-3.00" shape="2514.527335,962.329538 2589.634839,1010.346233 2534.646940,1079.278507 2453.591498,1034.085998 2514.527335,962.329538"/>
    <poly id="118377362" type="amenity.school" color="237,199,199" fill="1" layer="-1.00" shape="2596.536272,1212.891229 2497.468270,1145.338968 2463.272023,1189.542625 2528.606626,1226.839475 2475.754235,1304.408459 2514.199453,1328.214808 2554.605329,1353.840230 2612.305241,1275.162293 2656.639813,1303.747286 2684.774611,1265.496927 2596.536272,1212.891229"/>
    <poly id="118377496" type="amenity.kindergarten" color="237,199,199" fill="1" layer="-1.00" shape="2596.536272,1212.891229 2627.643775,1158.747627 2531.174253,1101.412459 2497.468270,1145.338968 2596.536272,1212.891229"/>
    <poly id="119776042" type="building.yes" color="255,230,230" fill="0" layer="-1.00" shape="1721.584947,568.056718 1663.974417,517.617656 1682.171444,496.931655 1714.501423,525.239836"/>
    <poly id="122666824" type="amenity.parking" color="184,184,179" fill="1" layer="-1.00" shape="1206.575472,551.873142 1209.497292,554.406218 1214.115136,558.395769 1225.254629,568.016288 1222.705700,570.771956 1201.732145,593.953000 1190.109511,583.652508 1183.449146,577.557089 1201.168489,557.902620 1206.575472,551.873142"/>
    <poly id="122868959" type="landuse.meadow" color="194,194,130" fill="1" layer="-3.00" shape="1094.046166,579.066204 1123.232872,585.804190 1137.119931,567.351342 1116.895566,550.828304 1092.233214,555.514379 1090.485471,558.531963 1094.046166,579.066204"/>
    <poly id="128648595" type="landuse.railway" color="194,194,130" fill="1" layer="-3.00" shape="1257.313394,706.593288 1223.006526,681.154481 1212.052813,673.966955 1213.530241,670.365196 1232.321784,679.351560 1251.749532,690.528151 1267.487425,700.533666 1262.141016,707.529878 1258.766307,704.794578 1257.313394,706.593288"/>
    <poly id="128648595#1" type="natural.grassland" color="140,196,107" fill="1" layer="-4.00" shape="1257.313394,706.593288 1223.006526,681.154481 1212.052813,673.966955 1213.530241,670.365196 1232.321784,679.351560 1251.749532,690.528151 1267.487425,700.533666 1262.141016,707.529878 1258.766307,704.794578 1257.313394,706.593288"/>
    <poly id="128648597" type="landuse.grass" color="194,194,130" fill="1" layer="-3.00" shape="1155.683869,751.855760 1168.249464,756.373296 1170.035667,755.580309 1172.263314,755.089885 1205.857599,687.712198 1194.242584,681.116762 1187.960741,678.240399 1150.184722,664.500177 1056.974570,640.651728 957.344557,615.556269 909.061957,607.295199 864.212924,602.647449 862.732559,616.419268 885.197178,619.710295 932.937131,626.713748 948.006696,628.920902 950.815639,635.584168 999.029226,644.481271 1015.092803,640.737782 1110.678611,666.673390 1161.989044,687.737308 1179.256652,694.362243 1167.578637,715.073249 1170.576635,725.026306 1167.577662,734.066668 1163.149577,732.710345 1155.683869,751.855760"/>
    <poly id="128648598" type="landuse.railway" color="194,194,130" fill="1" layer="-3.00" shape="1172.145138,776.010623 1172.232143,776.943500 1172.795500,777.555130 1178.021022,777.660155 1211.453641,710.029877 1210.658251,708.377048 1208.983558,707.632257 1207.186490,706.889956 1206.304714,707.008042 1205.762180,707.419647 1172.145138,776.010623"/>
    <poly id="128648598#1" type="natural.grassland" color="140,196,107" fill="1" layer="-4.00" shape="1172.145138,776.010623 1172.232143,776.943500 1172.795500,777.555130 1178.021022,777.660155 1211.453641,710.029877 1210.658251,708.377048 1208.983558,707.632257 1207.186490,706.889956 1206.304714,707.008042 1205.762180,707.419647 1172.145138,776.010623"/>
    <poly id="128648599" type="landuse.railway" color="194,194,130" fill="1" layer="-3.00" shape="1641.354324,993.321165 1696.875282,1049.298762 1687.339631,1058.994145 1631.721272,1002.573559 1641.354324,993.321165"/>
    <poly id="128648599#1" type="natural.grassland" color="140,196,107" fill="1" layer="-4.00" shape="1641.354324,993.321165 1696.875282,1049.298762 1687.339631,1058.994145 1631.721272,1002.573559 1641.354324,993.321165"/>
    <poly id="128648600" type="landuse.grass" color="194,194,130" fill="1" layer="-3.00" shape="941.419018,750.059138 1010.737644,784.384343 1013.565499,779.642302 943.467931,744.809991 941.419018,750.059138"/>
    <poly id="128648602" type="landuse.railway" color="194,194,130" fill="1" layer="-3.00" shape="1706.814680,1077.670923 1848.469672,1217.927244 1858.626059,1208.998490 1716.456580,1068.184835 1706.814680,1077.670923"/>
    <poly id="128648602#1" type="natural.grassland" color="140,196,107" fill="1" layer="-4.00" shape="1706.814680,1077.670923 1848.469672,1217.927244 1858.626059,1208.998490 1716.456580,1068.184835 1706.814680,1077.670923"/>
    <poly id="128648603" type="landuse.grass" color="194,194,130" fill="1" layer="-3.00" shape="1019.053585,788.620977 1128.574687,842.723885 1148.725954,801.945534 1147.592902,800.077057 1063.428080,802.448220 1021.037943,781.203458 1018.743934,782.440799 1017.953065,783.680872 1017.647398,786.034856 1018.035162,787.707094 1019.053585,788.620977"/>
    <poly id="128648603#1" type="leisure.park" color="207,245,201" fill="1" layer="-2.00" shape="1019.053585,788.620977 1128.574687,842.723885 1148.725954,801.945534 1147.592902,800.077057 1063.428080,802.448220 1021.037943,781.203458 1018.743934,782.440799 1017.953065,783.680872 1017.647398,786.034856 1018.035162,787.707094 1019.053585,788.620977"/>
    <poly id="128648604" type="landuse.railway" color="194,194,130" fill="1" layer="-3.00" shape="1459.021757,839.609355 1468.107698,831.547167 1480.035104,838.826747 1491.253135,846.677089 1512.052776,864.525132 1545.850317,898.187744 1583.521072,936.066962 1573.433879,945.395438 1517.094593,889.101963 1483.052873,856.490411 1471.542823,847.655735 1459.021757,839.609355"/>
    <poly id="128648604#1" type="natural.grassland" color="140,196,107" fill="1" layer="-4.00" shape="1459.021757,839.609355 1468.107698,831.547167 1480.035104,838.826747 1491.253135,846.677089 1512.052776,864.525132 1545.850317,898.187744 1583.521072,936.066962 1573.433879,945.395438 1517.094593,889.101963 1483.052873,856.490411 1471.542823,847.655735 1459.021757,839.609355"/>
    <poly id="128648610" type="landuse.construction" color="194,194,130" fill="1" layer="-3.00" shape="2020.280410,1072.066862 2041.937171,1093.104250 2073.380366,1126.628702 2072.992758,1135.393247 2016.631113,1205.928192 1948.629972,1147.951675 2020.280410,1072.066862"/>
    <poly id="128648612" type="landuse.railway" color="194,194,130" fill="1" layer="-3.00" shape="1083.922931,967.118597 1164.210912,805.546845 1161.353779,804.180793 1158.424572,803.617338 1078.439714,964.704560 1078.566620,965.925920 1082.001536,967.947754 1083.048459,967.926419 1083.922931,967.118597"/>
    <poly id="128648612#1" type="natural.grassland" color="140,196,107" fill="1" layer="-4.00" shape="1083.922931,967.118597 1164.210912,805.546845 1161.353779,804.180793 1158.424572,803.617338 1078.439714,964.704560 1078.566620,965.925920 1082.001536,967.947754 1083.048459,967.926419 1083.922931,967.118597"/>
    <poly id="129215054" type="leisure.pitch" color="207,245,201" fill="1" layer="-2.00" shape="1365.913521,958.754256 1376.528588,968.730672 1392.959926,951.328383 1382.351657,941.351794 1365.913521,958.754256"/>
    <poly id="129215054#1" type="sport.beachvolleyball" color="79,230,125" fill="1" layer="-2.00" shape="1365.913521,958.754256 1376.528588,968.730672 1392.959926,951.328383 1382.351657,941.351794 1365.913521,958.754256"/>
    <poly id="133858191" type="building.yes" color="255,230,230" fill="0" layer="-1.00" shape="910.979953,844.534862 918.149184,828.911155"/>
    <poly id="134100877" type="building.yes" color="255,230,230" fill="0" layer="-1.00" shape="1073.322063,850.080606 1074.680363,847.315737 1075.451065,845.753408"/>
    <poly id="137482515" type="building.yes" color="255,230,230" fill="0" layer="-1.00" shape="1415.732869,477.277779 1414.962386,473.165402 1414.918479,468.993762 1415.484123,466.033687 1416.065149,463.496116 1417.131630,460.748405 1418.627168,457.357756 1420.476430,454.638658 1422.628889,452.447487 1424.546751,450.761784 1426.955717,449.143997 1429.507688,447.534435 1432.705760,446.256685 1435.571791,445.375114 1438.148380,444.977872 1441.862623,445.002605 1444.745340,445.277882 1447.439944,445.668248 1449.962293,446.284648 1453.228155,447.675954 1456.321758,449.293294 1459.306274,451.903130 1461.448199,454.218523 1462.924029,456.892365 1464.849914,459.957636"/>
    <poly id="137482516" type="building.yes" color="255,230,230" fill="0" layer="-1.00" shape="1464.849914,459.957636 1466.374834,463.709777 1467.322245,468.163499 1467.487690,470.952954 1467.300045,473.771830 1466.650674,477.634864 1465.393071,481.020667"/>
    <poly id="137482517" type="building.yes" color="255,230,230" fill="0" layer="-1.00" shape="1453.005192,494.657603 1448.503549,496.384621 1444.315409,497.137252 1439.020236,497.300391 1433.735119,496.283897 1429.630992,494.809484 1425.953430,492.569795 1422.972308,490.126811 1420.825861,487.588992 1418.966795,484.800549 1416.828839,480.671434 1415.732869,477.277779"/>
    <poly id="137482518" type="building.yes" color="255,230,230" fill="0" layer="-1.00" shape="1453.005192,494.657603 1451.567199,492.172150 1447.159634,490.492475 1442.414730,487.273035 1440.727179,485.226594 1439.331728,483.496900 1437.346251,480.176933 1435.985486,475.130764 1415.732869,477.277779"/>
    <poly id="137482782" type="amenity.parking" color="184,184,179" fill="0" layer="-1.00" shape="2172.929622,417.007400 2185.148403,402.975196"/>
    <poly id="137482933" type="landuse.commercial" color="209,209,204" fill="0" layer="-3.00" shape="2142.434693,415.852921 2153.517771,425.454377"/>
    <poly id="137483015" type="landuse.residential" color="235,235,227" fill="0" layer="-3.00" shape="2155.099610,443.191823 2152.261388,440.734401 2148.717119,437.668118 2140.576071,430.611009 2127.630649,419.389253 2125.602229,417.627627 2111.639349,405.536290"/>
    <poly id="137483016" type="landuse.residential" color="235,235,227" fill="0" layer="-3.00" shape="2163.223386,433.870809 2155.099610,443.191823"/>
    <poly id="137483017" type="landuse.residential" color="235,235,227" fill="0" layer="-3.00" shape="2119.763111,396.215205 2111.639349,405.536290"/>
    <poly id="137483018" type="landuse.commercial" color="209,209,204" fill="0" layer="-3.00" shape="2119.763111,396.215205 2133.719197,408.306701 2142.434693,415.852921"/>
    <poly id="137483019" type="landuse.residential" color="235,235,227" fill="0" layer="-3.00" shape="2163.223386,433.870809 2199.062050,392.714205 2193.357949,387.777616 2195.372327,385.467184 2157.616086,352.747838 2119.763111,396.215205"/>
    <poly id="139110550" type="building.yes" color="255,230,230" fill="1" layer="-1.00" shape="1748.684359,1030.825215 1724.585262,1055.168851 1753.136104,1083.431317 1763.986057,1072.474394 1746.983199,1055.638893 1749.768955,1052.823069 1760.232562,1042.263397 1748.684359,1030.825215"/>
    <poly id="142575660" type="building.university" color="255,230,230" fill="0" layer="-1.00" shape="1199.486644,934.744916 1195.689890,931.317265"/>
    <poly id="142575680" type="amenity.public_building" color="237,199,199" fill="1" layer="-1.00" shape="1490.246332,1293.993065 1499.706403,1283.631198 1556.407520,1335.165907 1546.980524,1345.482488 1503.900660,1306.333673 1501.510297,1304.156835 1484.838903,1322.420430 1476.012219,1314.399190 1492.650525,1296.180744 1490.246332,1293.993065"/>
    <poly id="142575680#1" type="building.yes" color="255,230,230" fill="1" layer="-1.00" shape="1490.246332,1293.993065 1499.706403,1283.631198 1556.407520,1335.165907 1546.980524,1345.482488 1503.900660,1306.333673 1501.510297,1304.156835 1484.838903,1322.420430 1476.012219,1314.399190 1492.650525,1296.180744 1490.246332,1293.993065"/>
    <poly id="142575683" type="building.yes" color="255,230,230" fill="0" layer="-1.00" shape="1580.876073,1336.527799 1565.350665,1353.966750 1577.711631,1364.920689 1593.237270,1347.492899"/>
    <poly id="142575705" type="building.university" color="255,230,230" fill="0" layer="-1.00" shape="1154.220002,1032.658634 1199.905928,1073.954587 1205.690967,1079.177685 1218.229810,1065.381196"/>
    <poly id="142575746" type="landuse.village_green" color="242,242,204" fill="1" layer="-3.00" shape="1695.430035,340.855569 1691.087919,299.752357 1672.083180,300.749219 1676.767844,342.301677 1679.471962,344.839437 1691.855827,344.054557 1695.430035,340.855569"/>
    <poly id="142575747" type="landuse.railway" color="194,194,130" fill="1" layer="-3.00" shape="1323.365609,741.256333 1368.371208,774.456296 1377.817300,780.773521 1439.328115,815.619356 1433.701601,824.568249 1356.389267,776.557944 1316.856097,749.922890 1323.365609,741.256333"/>
    <poly id="142575747#1" type="natural.grassland" color="140,196,107" fill="1" layer="-4.00" shape="1323.365609,741.256333 1368.371208,774.456296 1377.817300,780.773521 1439.328115,815.619356 1433.701601,824.568249 1356.389267,776.557944 1316.856097,749.922890 1323.365609,741.256333"/>
    <poly id="142575750" type="landuse.grass" color="194,194,130" fill="1" layer="-3.00" shape="1206.693320,670.960530 1208.031135,667.851189 1192.093978,660.765127 1170.205726,652.353788 1169.143084,653.276691 1168.846186,654.729216 1170.096886,656.027839 1190.854075,663.672198 1206.693320,670.960530"/>
    <poly id="142575751" type="building.yes" color="255,230,230" fill="0" layer="-1.00" shape="1238.562502,822.281435 1222.982513,808.656607 1210.831379,822.489674 1226.383489,836.081649 1230.934685,831.126643 1232.610765,829.267749"/>
    <poly id="142575753" type="building.commercial" color="255,230,230" fill="1" layer="-1.00" shape="1367.592951,755.233945 1377.629282,763.820163 1404.279217,732.802598 1451.289812,772.994686 1460.458780,762.316016 1409.731389,718.950316 1406.841342,722.324788 1400.508174,716.912302 1397.724199,720.151104 1396.547662,719.151341 1395.351487,720.533104 1396.535275,721.554972 1367.592951,755.233945"/>
    <poly id="142575754" type="building.yes" color="255,230,230" fill="0" layer="-1.00" shape="1807.062635,985.081222 1799.928298,978.015443 1786.544036,991.460313 1810.944982,1015.623440 1824.169234,1002.337647 1818.568838,996.798557"/>
    <poly id="142575756" type="building.yes" color="255,230,230" fill="0" layer="-1.00" shape="1321.618672,540.887787 1322.104778,541.044807 1325.171870,542.362180 1328.066571,542.225455 1329.281360,540.754285 1329.519854,539.102677 1329.353133,537.592827 1327.417470,534.049355 1324.128323,531.846353 1321.009967,531.353402 1319.154103,531.736057 1317.405342,534.041464 1318.437921,537.325121 1318.864371,538.562649"/>
    <poly id="142575757" type="building.yes" color="255,230,230" fill="0" layer="-1.00" shape="1556.307960,843.743871 1500.689995,796.248306"/>
    <poly id="142575761" type="building.yes" color="255,230,230" fill="1" layer="-1.00" shape="1814.160931,1074.073857 1823.757526,1064.355241 1808.381382,1049.255778 1816.151790,1041.376626 1817.865792,1043.066596 1821.684375,1039.195134 1819.859578,1037.407264 1821.245683,1035.999510 1811.579952,1026.503663 1771.981099,1066.626814 1781.757854,1076.231604 1793.140252,1064.696510 1798.784785,1058.974424 1814.160931,1074.073857"/>
    <poly id="142575763" type="building.yes" color="255,230,230" fill="0" layer="-1.00" shape="1880.072916,853.310732 1883.709445,856.909037 1870.711946,870.000910 1847.889716,892.982867 1849.742645,894.814687 1846.816675,897.766806 1844.477261,900.128474 1842.825530,898.492869 1832.127764,909.268491 1828.581634,905.768536"/>
    <poly id="142575764" type="landuse.commercial" color="209,209,204" fill="0" layer="-3.00" shape="1443.343576,624.480369 1466.874738,643.819410"/>
    <poly id="142575765" type="building.yes" color="255,230,230" fill="0" layer="-1.00" shape="1484.869999,1248.237696 1469.366399,1265.409464 1480.742397,1275.726690 1496.047988,1258.180667"/>
    <poly id="142575766" type="building.university" color="255,230,230" fill="0" layer="-1.00" shape="1373.614312,1151.969789 1397.618451,1125.400935"/>
    <poly id="142575767" type="building.yes" color="255,230,230" fill="0" layer="-1.00" shape="1355.538255,1186.785609 1335.309009,1168.526085 1324.686315,1180.235993 1344.908758,1198.495612"/>
    <poly id="142575769" type="building.yes" color="255,230,230" fill="1" layer="-1.00" shape="1770.264898,876.984138 1778.606631,885.227132 1829.526535,834.460488 1821.255767,826.026819 1770.264898,876.984138"/>