<?xml version="1.0" encoding="UTF-8"?>

<!-- generated on 2021-09-07 15:10:32 by Eclipse SUMO duarouter Version v1_10_0+0551-f581c04ba63
<configuration xmlns:xsi="http://www.w3.org/2001/XMLSchema-instance" xsi:noNamespaceSchemaLocation="http://sumo.dlr.de/xsd/duarouterConfiguration.xsd">

    <input>
        <net-file value="osm.net.xml"/>
        <additional-files value="osm_stops.add.xml,osm_pt.rou.xml"/>
        <route-files value="osm.pedestrian.trips.xml"/>
    </input>

    <output>
        <output-file value="osm.pedestrian.rou.xml"/>
        <alternatives-output value="osm.pedestrian.rou.alt.xml"/>
    </output>

    <processing>
        <persontrip.walk-opposite-factor value="0.8"/>
    </processing>

    <time>
        <begin value="0"/>
        <end value="1800"/>
    </time>

    <report>
        <no-warnings value="true"/>
        <ignore-errors value="true"/>
        <no-step-log value="true"/>
    </report>

</configuration>
-->

<routes xmlns:xsi="http://www.w3.org/2001/XMLSchema-instance" xsi:noNamespaceSchemaLocation="http://sumo.dlr.de/xsd/routes_file.xsd">
    <vType id="ped_pedestrian" vClass="pedestrian"/>
    <person id="ped0" type="ped_pedestrian" depart="0.00">
        <walk edges="40985809#0 40985809#1 302943909#1 302943909#2 -40985814#2 -616846343#1 -616846343#0 302943908#1 302943908#2 -142575708#5 -142575708#4 887625218#1 887625218#0 887625216#11 142575735#0 142575735#2" busStop="1704693451"/> <!-- Walther-Nernst-Straße -->
        <ride busStop="1704693381" lines="61:1" intended="pt_tram_61:1.0" depart="473.00"/> <!-- Magnusstraße -->
        <walk edges="81096589#1 143308546#3 887910341#21 887910341#22 887910341#23 887910341#24 887910341#25 887868572#2 143308532#1" busStop="671564316"/> <!-- Rudower Chaussee/Wegedornstraße -->
        <ride busStop="-1553912606" lines="160:1" intended="pt_bus_160:1.0" depart="867.00"/> <!-- Akeleiweg -->
        <walk edges="-141968830#1 708546962#1 -138624421#34 -138624421#33 -138624445#18 -138624445#17 -138624445#16 -138624445#15"/>
    </person>
    <person id="ped1" type="ped_pedestrian" depart="1.22">
        <walk edges="-629992783 -629595835#0 143482755#5 314415495#3 314415495#4 314415495#5 314415495#6 314415495#7 314415495#8 314415495#9 314415495#10 314415495#11 314415495#12 314415495#13 314415495#14 314415495#15" busStop="385200819"/> <!-- Albert-Einstein-Straße -->
        <ride busStop="5315085711" lines="260:1" intended="pt_bus_260:1.0" depart="696.00"/> <!-- S Adlershof -->
        <walk edges="806903753" busStop="3508654675"/> <!-- S Adlershof -->
        <walk edges="206889086#1" busStop="1656195133"/> <!-- S Adlershof -->
        <ride busStop="945142098" lines="163:3" intended="pt_bus_163:3.0" depart="961.00"/> <!-- Hans-Schmidt-Straße -->
        <walk edges="318210378#0 318210378#1 840221733#2 840221733#1 840221733#0 257072321#12 257072321#11 590751241 -461093303#1"/>
    </person>
    <person id="ped2" type="ped_pedestrian" depart="2.45">
        <walk edges="586124064#1 -586124064#0 138624445#1 138624445#3 138624445#4 138624445#5 -138624432#1 -52460499#7 -52460499#8 -52460499#9 887712505#1 -52460499#12 141873658#1 141873658#0 141968844#6 141968814#1 141968814#0 141968853#0 141968853#1" busStop="837696912"/> <!-- Akeleiweg -->
        <ride busStop="1560223236" lines="160:0" intended="pt_bus_160:0.1" depart="758.00"/> <!-- Rudower Chaussee/Wegedornstraße -->
        <walk edges="143308587#1 143308542#1" busStop="464396487"/> <!-- Rudower Chaussee/Wegedornstraße -->
        <ride busStop="5315085711" lines="164:1" intended="pt_bus_164:1.1" depart="1152.00"/> <!-- S Adlershof -->
        <ride busStop="3812676495" lines="163:2" intended="pt_bus_163:2.2" depart="1609.00"/> <!-- Otto-Franke-Straße -->
        <walk edges="977639651#1 153021553 318210353 22917896#0 53529919#1 53529919#3 -26444467#9 -26444467#8 -53529286#0 53529255#1 53529255#2"/>
    </person>
    <person id="ped4" type="ped_pedestrian" depart="4.89">
        <walk edges="142575735#0 142575735#2 887910341#4 887910341#5 887910341#6 -143308493#4 143308493#3 25728863#1 126520113 840565794#0 92914084#2 976918146 976918148#1 976918148#0 -976918145#1 840221716#1 840221716#0 840221715#2 840221715#0 143308521#13 143308521#12 143308521#11 840221713#6 840221713#5 840221713#4 840221714#5 143308521#4 -143308521#3 -143308521#2 -143308521#1 840221709#7 840221709#8 840221700#3 840221700#2 840221703#4 38915289#5 840221703#6 840221702#3 142575742#0 32235088#12 360099561 72077903#1 -360099566 360099571#1 38568648 138624469#10 138624469#9 -138624469#8"/>
    </person>
    <person id="ped6" type="ped_pedestrian" depart="7.34">
        <walk edges="-138624445#7 -138624432#1 -52460499#7 -52460499#8 -52460499#9 887712505#1 -52460499#12 141873658#1 141873658#0 141968844#6 141968814#1 141968814#0 141968853#0 141968853#1" busStop="837696912"/> <!-- Akeleiweg -->
        <ride busStop="1560223236" lines="160:0" intended="pt_bus_160:0.1" depart="758.00"/> <!-- Rudower Chaussee/Wegedornstraße -->
        <walk edges="143308587#1 143308542#1" busStop="464396487"/> <!-- Rudower Chaussee/Wegedornstraße -->
        <ride busStop="464396589" lines="164:1" intended="pt_bus_164:1.1" depart="1152.00"/> <!-- Walther-Nernst-Straße -->
        <walk edges="143308542#15 142575735#0 887625216#11 887625218#0 887625218#1 142575708#4 142575708#5 -302943908#2 -302943908#1 616846343#0 616846343#1 40985814#2 -302943909#2 -302943909#1 -302943909#0 -40985809#0 26991766#15 302944175#0 302944175#1 142575734#1 142575734#2 142575734#3 843189993#2 843189993#3 -38159999#1 -38159999#0"/>
    </person>
    <person id="ped7" type="ped_pedestrian" depart="8.57">
        <walk edges="45642431#1 142575687#1 840565793#2 840221718#0 887919955#0 887919956#3 887919956#2 143308493#3 143308493#4 887910341#9 142575674#4 142575674#2 142575674#1 -142575656#11 -143308686#1 -143308686#0 -143308505#2 -143308505#3 -143308505#4 843190007#3 843190007#4 -843190005#2 -843190005#3 -843190005#4 -147859765#7 -147859765#8 843190012#0 843190016#7 843190016#6 843190016#5 -172013798#5 -172013798#6 38160000 142575678#2 887612168#6 257131027"/>
    </person>
    <person id="ped8" type="ped_pedestrian" depart="9.79">
        <walk edges="-443454551 187122892#10 887593804#4 336335403#3 336335403#1 336335403#0 152839434#1 -43660343#0 -43660343#1 52243916#1 318210383#0"/>
    </person>
    <person id="ped9" type="ped_pedestrian" depart="11.01">
        <walk edges="77761480#1 71960702 -38574189#3 -38574189#2 -38574189#1 -38574189#0 72077947#1 38574191 115092088#0 142575679#1 142575679#2 142575679#3 142575679#5 142575679#6 -142575679#7 -142575679#8 -142575679#9 46039050#4" busStop="837696524"/> <!-- James-Franck-Straße -->
        <ride busStop="1560223236" lines="160:0" intended="pt_bus_160:0.1" depart="881.00"/> <!-- Rudower Chaussee/Wegedornstraße -->
        <walk edges="143308587#1 24214694#3 114024900 114949101#1 -172014854#1 116343628#1 116343628#2 -116343628#2"/>
    </person>
    <person id="ped11" type="ped_pedestrian" depart="13.46">
        <walk edges="115466410#0 122666827 122666825 887612171#9 887612171#10 -172014854#1 116343628#1 116343628#2 116343628#3 -257131023"/>
    </person>
    <person id="ped12" type="ped_pedestrian" depart="14.68">
        <walk edges="887612171#2 887612171#1 887612171#0 579026237#1 579026237#0 977374305#1 142575656#15 142575656#14 142575656#12 142575656#11 -142575656#10 143308646#0 143308646#1 583563976 843190001#9 887625211#1 142575704#10 142575704#12 142575704#13 142575704#14 142575704#15 142575704#16 142575704#17 142575704#19 142575704#20 -137483014#0 -137483015#3 -137483015#2 114355960#0 114355961"/>
    </person>
    <person id="ped13" type="ped_pedestrian" depart="15.91">
        <walk edges="-149611511#3 -149611511#2 -149611511#1 -149611511#0 149611526#0" busStop="1383533575"/> <!-- Radickestraße/Anna-Seghers-Straße -->
        <ride busStop="301331956" lines="164:0" intended="pt_bus_164:0.0" depart="351.00"/> <!-- Magnusstraße -->
        <walk edges="143308546#1 143308546#3 142575692#1 71028777#3 71028777#5 71028774#0 71028774#1 70133621#0 70133621#1 149670380#1 149670380#2 24791993#0 24791993#1 24791993#2 840101791 -149670370#0"/>
    </person>
    <person id="ped14" type="ped_pedestrian" depart="17.13">
        <walk edges="840221714#0 840221713#5 840221713#6 143308521#11 840221735#7 840221735#6 840221735#5" busStop="1704693343"/> <!-- Karl-Ziegler-Straße -->
        <ride busStop="1704693457" lines="61:0" intended="pt_tram_61:0.0" depart="243.00"/> <!-- Walther-Nernst-Straße -->
        <walk edges="81096606#5 143308542#15" busStop="464396589"/> <!-- Walther-Nernst-Straße -->
        <ride busStop="5315085711" lines="164:1" intended="pt_bus_164:1.0" depart="698.00"/> <!-- S Adlershof -->
        <ride busStop="1383533461" lines="163:2" intended="pt_bus_163:2.1" depart="1009.00"/> <!-- Adlergestell/Glienicker Weg -->
        <walk edges="318210360#0 336335410#2"/>
    </person>
    <person id="ped15" type="ped_pedestrian" depart="18.35">
        <walk edges="767962950#1 767962950#2 767962949 767962948#0 767962948#1 143308549#1 887625216#15 887625216#14 887625216#13 887625216#12 887625216#11 142575735#0 142575735#2" busStop="1704693451"/> <!-- Walther-Nernst-Straße -->
        <ride busStop="1704693381" lines="61:1" intended="pt_tram_61:1.0" depart="473.00"/> <!-- Magnusstraße -->
        <walk edges="81096589#1 143308546#3 887910341#21 887910341#22 887910341#23 887910341#24 887910341#25 887868572#2 143308532#1" busStop="671564316"/> <!-- Rudower Chaussee/Wegedornstraße -->
        <ride busStop="-1553912606" lines="160:1" intended="pt_bus_160:1.0" depart="867.00"/> <!-- Akeleiweg -->
        <walk edges="-141968830#1 708546962#1 52460499#9 -52460499#8 887712505#4 138624432#1 -138624426 -138624421#15 -138624421#14 -138624421#13 138624421#12 -138624421#11 586124025"/>
    </person>
    <person id="ped16" type="ped_pedestrian" depart="19.58">
        <walk edges="24791992 143308600#2 143308600#3 239335492#0 239335492#2 149670382 156294408#1 149670373#1 -149670379#0 149670380#0 149670380#1 149670380#2 24791993#0 24791993#1 24791993#2 24791993#4 -24791993#6 840221713#3 840221714#5 143308521#4 840221713#1 143308521#2 143308521#1 840221708#1 840221708#2 -115092088#0 -38574191 -24791996#1 -24791996#0 -138624421#27 -138624421#25 -138624421#24 -138624421#21 -138624421#19 -24791997#0 -138624445#7 -138624432#1 -52460499#6 52460499#5 52460499#3 887712506#0"/>
    </person>
    <person id="ped17" type="ped_pedestrian" depart="20.80">
        <walk edges="140162609#0 540388571 140162599 140162595 540223979 540224357#1 230625606#0 82710639#6 540221744" busStop="1704693444"/> <!-- S Adlershof -->
        <ride busStop="1704693369" lines="61:1" intended="pt_tram_61:1.0" depart="345.00"/> <!-- Karl-Ziegler-Straße -->
        <walk edges="397678504#3 397678504#2 397678490#1 397678497#1 397678495#0 397678495#1 257072322#3 412992935#1 412992935#2 259466417#0 259466417#1"/>
    </person>
    <person id="ped18" type="ped_pedestrian" depart="22.03">
        <walk edges="840101794 840101788#1 840101788#0 840221739#10 840221739#11 840221739#12 840221739#13 840221707#4 840221707#0 840221735#6 840221735#7 -143308521#11 -143308521#9 840221714#1 840221714#2 840221714#3 840221714#4 -143308521#4 -143308521#3 -143308521#2 -143308521#1 840221709#7 840221709#8 840221700#3 840221700#2 840221703#4 38915289#5 840221703#6 840221702#3 142575742#0 32235088#12 360099561 72077903#1 360099574#1 38574189#9 138624490 53385406#0 -54039583#8 -54039583#7 -54039583#6 -54039583#5 -38568646 -38568630#4 -38568630#2 -38568630#1 -38568630#0 -138624477#4 38568632#0"/>
    </person>
    <person id="ped19" type="ped_pedestrian" depart="23.25">
        <walk edges="840221735#1 840221704#0 840221705#2 840221705#3 840221703#2 840221703#3 840221700#1 -38915289#1 -38915289#0 -115092088#0 -38574191 -24791996#1 -24791996#0 138624421#29 138624421#31 138624421#32 138624421#33 180239877#0 312192836"/>
    </person>
    <person id="ped20" type="ped_pedestrian" depart="24.47">
        <walk edges="578659327#5 578659323#2 578659323#1 578659323#0 259466417#0 412992929#1 412992929#2 412992929#3 259433184#0 142575684#4 -142575684#6"/>
    </person>
    <person id="ped21" type="ped_pedestrian" depart="25.70">
        <walk edges="-52080902 259433184#0 142575684#1 -142575684#0 -142575731#2 -142575731#1 -142575657#3 840221709#3 840221714#4 -143308521#4 -143308562#1 -143308562#2 -143308562#3 -143308562#4 -143308562#6 -143308562#10 71595976 -71595991"/>
    </person>
    <person id="ped22" type="ped_pedestrian" depart="26.92">
        <walk edges="-143308646#2 -143308646#1 843544574#7 843544574#8 843544573#0 142575704#5 -142575704#4 -142575704#3 -142575704#2 887625216#9 887625216#10 142575735#0 143308542#15" busStop="464396589"/> <!-- Walther-Nernst-Straße -->
        <ride busStop="5315085711" lines="162:1" intended="pt_bus_162:1.0" depart="381.00"/> <!-- S Adlershof -->
        <ride busStop="3812676495" lines="163:1" intended="pt_bus_163:1.1" depart="750.00"/> <!-- Otto-Franke-Straße -->
        <walk edges="977639651#1 153021553 318210353 22917896#0 53529919#1 53529919#3 -26444467#9 -53529200#2 -53529200#1"/>
    </person>
    <person id="ped23" type="ped_pedestrian" depart="28.14">
        <walk edges="-152839426 -152839428 45875465 679901152#0 540388579#0 329733350 206889086#1 541676219 318210389#0 52080655#0 318210394#0 -334308447#0 -334308447#1 -334308447#4 -334308447#6 -334308447#8 -142575700#0 -142575700#1 -142575700#2 142575700#3 678739630#1 679894162 -679894162"/>
    </person>
    <person id="ped24" type="ped_pedestrian" depart="29.37">
        <walk edges="40191605#0 -187122892#12 187122892#11 187122892#10 187122892#9 187122892#8 26444467#0 26444467#1 26444467#2 26444467#3 26444467#4 26444467#5 26444467#6 26444467#7 26444467#8 26444467#9 -320153863#0 -320153863#4 40089662#6 886496555#4 886496555#5 153021549#0 153021549#1" busStop="1862990707"/> <!-- Otto-Franke-Straße -->
        <ride busStop="1656195133" lines="163:3" intended="pt_bus_163:3.0" depart="843.00"/> <!-- S Adlershof -->
        <ride busStop="301331956" lines="164:0" intended="pt_bus_164:0.1" depart="1035.00"/> <!-- Magnusstraße -->
        <walk edges="143308546#1 143308546#3 142575692#1 71028777#3 71028777#5 71028774#0 71028774#1 70133621#0 70133621#1 149670380#1 149670380#2 24791993#0 24791993#1 24791993#2 24791993#4 -24791993#6 840221713#3 840221714#5 143308521#4 840221713#1 143308521#2 143308521#1 840221708#1 840221708#2 -115092088#0 -38574191 -24791996#1 -24791996#0 138624421#29 138624421#31 138624421#32"/>
    </person>
    <person id="ped25" type="ped_pedestrian" depart="30.59">
        <walk edges="138624445#3 -138624445#1 -138624445#0 138624421#7 138624421#9 -38568626 138624469#4 138624469#5 138624469#6 138624469#7 -138624469#12 138624469#11 -38568648 -360099571#1 -38574189#7"/>
    </person>
    <person id="ped26" type="ped_pedestrian" depart="31.81">
        <walk edges="-586124064#1 586124064#1 -586124064#0 138624445#1 138624445#3 138624445#4 138624445#5 -138624432#1 -52460499#7 -52460499#8 52460499#9 887712506#4 883112696#1"/>
    </person>
    <person id="ped27" type="ped_pedestrian" depart="33.04">
        <walk edges="443454551 187122892#9 187122892#8 26444467#0 26444467#1 26444467#2 26444467#3 26444467#4 26444467#5 26444467#6 26444467#7 26444467#8 26444467#9 -53529919#3 -53529919#2 204721579#2" busStop="1383533462"/> <!-- Adlergestell/Glienicker Weg -->
        <ride busStop="1656195133" lines="163:0" intended="pt_bus_163:0.0" depart="422.00"/> <!-- S Adlershof -->
        <ride busStop="-385200818" lines="260:0" intended="pt_bus_260:0.1" depart="772.00"/> <!-- Albert-Einstein-Straße -->
        <walk edges="-314415495#16 -314415495#15 357043348"/>
    </person>
    <person id="ped28" type="ped_pedestrian" depart="34.26">
        <walk edges="-302943908#2 -142575656#3 142575656#4 142575656#5 142575656#7 142575656#8 26004787#0 26004787#1 26004787#2 -142575674#5 143308542#8 143308542#6" busStop="1704693381"/> <!-- Magnusstraße -->
        <ride busStop="1704693369" lines="61:1" intended="pt_tram_61:1.0" depart="553.00"/> <!-- Karl-Ziegler-Straße -->
        <walk edges="142575686#5 142575684#0 142575684#1 142575684#4 142575684#6 -135777010#11 -135777010#10 -135777010#9 -135777010#6 -135777010#5 142575742#0 32235088#12 360099561 72077903#1 -360099566 360099571#1 38568648 138624469#11 138624469#12 -138624469#7 -138624469#6 -138624469#5 586124018"/>
    </person>
    <person id="ped29" type="ped_pedestrian" depart="35.49">
        <walk edges="-26444468#3 187122892#3 187122892#2 187122892#1 187122892#0 149611511#4 149611511#3 149611511#2 149611511#1 579671856#0 579671856#1 579671856#2 579671856#3 -579671869#0 -166142951#0 -137534616#4 -137534616#3 140964924"/>
    </person>
    <person id="ped30" type="ped_pedestrian" depart="36.71">
        <walk edges="92914055#1 397678504#0 397678504#1 397678504#2 840221739#16 397678503#1 142575686#3" busStop="1704693343"/> <!-- Karl-Ziegler-Straße -->
        <ride busStop="1704693457" lines="61:0" intended="pt_tram_61:0.0" depart="243.00"/> <!-- Walther-Nernst-Straße -->
        <walk edges="81096606#5 143308542#15 142575735#0 887625216#11 887625218#0 887625218#1 142575708#4 142575708#5 -302943908#2 -302943908#1 616846343#0 616846343#1 40985814#2 -302943909#2 -40985813#1 40985813#1"/>
    </person>
    <person id="ped31" type="ped_pedestrian" depart="37.93">
        <walk edges="26444467#2 26444467#3 26444467#4 26444467#5 26444467#6 26444467#7 26444467#8 26444467#9 -320153863#0 -320153863#4 40089662#6 886496555#4 886496555#5 153021549#0 153021549#1" busStop="1862990707"/> <!-- Otto-Franke-Straße -->
        <ride busStop="1656195133" lines="163:0" intended="pt_bus_163:0.0" depart="485.00"/> <!-- S Adlershof -->
        <walk edges="206889086#1 329733357#4 329733357#3 329733357#1 329733357#0 329733354#0 540224357#0 540223976"/>
    </person>
    <person id="ped32" type="ped_pedestrian" depart="39.16">
        <walk edges="840221709#2 -142575657#1 840221714#2 840221714#1 -143308521#9 -143308521#11 840221735#7 840221735#6 840221707#0 840221715#0 840221715#2 840221716#0 840221716#1 840221716#2 840221716#3 840221731 840221732#0 840221729#0 -142575655#6 840221729#2 840221719#2 840221719#1 840221728#7 840221728#6 -318210378#1 45642424 -45642428 679894150"/>
    </person>
    <person id="ped33" type="ped_pedestrian" depart="40.38">
        <walk edges="-52081093#2 52081093#3 259433182#7 259433182#5 259433182#4 259433182#3 259433182#2 259433182#1 259433182#0 70130339#2 70130339#3 70130339#4 118262353#2 -38915290#2 -38915290#1 840221733#2 840221720#1 840221720#0 840221728#6 -318210378#1 -318210378#0 -887919960#5" busStop="-945142208"/> <!-- Hans-Schmidt-Straße -->
        <ride busStop="5315085711" lines="163:2" intended="pt_bus_163:2.1" depart="859.00"/> <!-- S Adlershof -->
        <walk edges="806903753 218797686#0 329733357#3 329733357#4 329733350 540388579#0 40191607#2 886496562#1 140964905#2 -140964905#2"/>
    </person>
    <person id="ped34" type="ped_pedestrian" depart="41.60">
        <walk edges="-845194194 -334308447#6 -334308447#8 -142575700#0 -142575700#1 -142575700#2 -142575700#3 -142575700#4 840221728#3 840221728#4 840221728#5 840221728#6 840221728#7 840221719#1 840221719#2 840221729#2 -142575655#6 840221729#0 840221732#0 840221731 840221716#3 840221716#2 840221716#1 840221716#0 840221715#2 840221715#0 143308521#13 143308521#12 143308521#11 840221713#6 840221713#5 840221713#4 840221714#5 143308521#4 840221713#1 143308521#2 143308521#1 840221708#1 840221708#2 -115092088#0 -38574191 -24791996#1 -24791996#0 -138624421#27 -138624421#25 -138624421#24 -138624421#21 -138624421#19 -138624421#18 -138624421#15 -138624421#14 -138624421#13 138624421#12 -138624421#11 -138624421#10 -138624421#9 -138624421#7 586124067 -586124067"/>
    </person>
    <person id="ped35" type="ped_pedestrian" depart="42.83">
        <walk edges="-38915289#1 38915289#0 -143308521#1 -143308521#2 -143308521#3 143308521#4 840221714#5 840221713#3 -24791993#6 -24791993#4 -24791993#2 -24791993#1 -24791993#0 -149670384#0 -149670380#1 -70133621#1 -70133621#0 71028774#1 71028774#0 71028777#5 71028777#3 142575692#1 143308546#3 81096589#1 81096589#4 143308542#6" busStop="306982602"/> <!-- Magnusstraße -->
        <ride busStop="5315085711" lines="162:3" intended="pt_bus_162:3.0" depart="816.00"/> <!-- S Adlershof -->
        <ride busStop="1383533461" lines="163:1" intended="pt_bus_163:1.2" depart="1350.00"/> <!-- Adlergestell/Glienicker Weg -->
        <walk edges="318210360#0 336335410#2 886496558#0"/>
    </person>
    <person id="ped36" type="ped_pedestrian" depart="44.05">
        <walk edges="840565793#6 840221730#3 -52081075#4 -52081075#3 -52081075#2 -142575674#5 -142575674#2 -142575674#1 142575656#11 142575656#12 843544574#4 843544574#3 843544574#2 843832576 843832588#2 -843832588#2"/>
    </person>
    <person id="ped37" type="ped_pedestrian" depart="45.27">
        <walk edges="461514282#0 72230304#1 329733354#1 329733354#0 329733357#0 329733357#1 218797686#0 806903753 220194458#3" busStop="1704693444"/> <!-- S Adlershof -->
        <ride busStop="1704693381" lines="61:1" intended="pt_tram_61:1.0" depart="345.00"/> <!-- Magnusstraße -->
        <walk edges="81096589#1 143308546#3 887910341#21 887910341#22 887910341#23 887910341#24 887910341#25 887868572#2 143308532#1" busStop="671564316"/> <!-- Rudower Chaussee/Wegedornstraße -->
        <ride busStop="837696418" lines="160:1" intended="pt_bus_160:1.0" depart="867.00"/> <!-- James-Franck-Straße -->
        <walk edges="143308532#7 142575679#9 142575679#8 142575679#7 142575679#6 142575679#5 142575679#3"/>
    </person>
    <person id="ped38" type="ped_pedestrian" depart="46.50">
        <walk edges="843544571#1 843544571#0 843189998#3 142575656#7 142575656#8 26004787#0 26004787#1 26004787#2 -142575674#5 887910341#12 887910341#13 887910341#14 677923383 -71028777#1 -71028777#2 71028777#3 71028777#5 71028774#0 71028774#1 142575659#0 142575659#1 142575659#2 142575659#3 543074343#0 543074343#1 -142575673#1 -142575673#0 -142575679#6 146738850#0"/>
    </person>
    <person id="ped39" type="ped_pedestrian" depart="47.72">
        <walk edges="-586124054 138624445#13 138624445#14 138624445#15 138624445#16 138624445#17 138624445#18 -138624421#32 -138624421#31 -138624421#29 24791996#0 24791996#1 38574191 115092088#0 840221708#2 840221708#1 143308521#1 143308521#2 840221713#1 143308521#4 840221714#5 840221713#4 840221713#5 840221713#6 143308521#11 143308521#12 143308521#13 840221715#0 840221715#2 840221716#0 840221716#1 976918145#1 976918148#0 976918148#1 976918146 92914084#2 840565794#0 840565794#1 840565794#2 -867334329#1 867334328 558305349#1 558305344 -558305346"/>
    </person>
    <person id="ped40" type="ped_pedestrian" depart="48.95">
        <walk edges="26816541 -26816413#0 81096576 -143308560#2 81096591#0 887910341#24 -70139065 70138930 -25944603#0 25944603#1 25944603#2 70133621#0 70133621#1 149670380#1 149670380#2 24791993#0 24791993#1 24791993#2 24791993#4 -24791993#6 840221713#3 840221714#5 143308521#4 840221713#1 143308521#2 143308521#1 840221708#1 840221708#2 -115092088#0 -38574191 -24791996#1 -24791996#0 -138624421#27 586124044 -586124044"/>
    </person>
    <person id="ped41" type="ped_pedestrian" depart="50.17">
        <walk edges="314415495#7 314415495#8 314415495#9 314415495#10 314415495#11 -314415495#12 -314415495#13 -314415495#14 -314415495#15 -314415495#16 -314415495#17 -314415495#19 142575656#0 142575656#1 -142575708#5 -142575708#4 142598710#1 142598710#2 518680733#0 518680733#1 142575704#2 143308542#13 843190001#0"/>
    </person>
    <person id="ped44" type="ped_pedestrian" depart="53.84">
        <walk edges="-147859765#0 977374305#1 843190015#0 -142575688#3"/>
    </person>
    <person id="ped45" type="ped_pedestrian" depart="55.06">
        <walk edges="-175357041#1 -146511461#3 -146511461#2 -146511461#1 153021549#0 153021549#1" busStop="1862990707"/> <!-- Otto-Franke-Straße -->
        <ride busStop="1656195133" lines="163:0" intended="pt_bus_163:0.0" depart="485.00"/> <!-- S Adlershof -->
        <ride busStop="464396566" lines="162:0" intended="pt_bus_162:0.1" depart="693.00"/> <!-- Walther-Nernst-Straße -->
        <walk edges="670062907#1 -31050360#2 -318210377#0 -887919960#0 -887919960#4 887919960#5 318210378#0 318210378#1 38915290#1 38915290#2"/>
    </person>
    <person id="ped46" type="ped_pedestrian" depart="56.29">
        <walk edges="708753754#1 -52460499#12 141873658#1 141873658#0 141968844#6 141968814#1 141968814#0 141968853#0 141968853#1 141968853#2 46150483#0 887860359#1 206579058#1 46039050#1 46039050#4 46039050#7 143308542#1 143308542#3 143308542#4 143308542#6" busStop="306982602"/> <!-- Magnusstraße -->
        <ride busStop="464396589" lines="164:1" intended="pt_bus_164:1.1" depart="1216.00"/> <!-- Walther-Nernst-Straße -->
        <walk edges="143308542#15 142575735#2"/>
    </person>
    <person id="ped47" type="ped_pedestrian" depart="57.51">
        <walk edges="-142575734#5 -142575734#3 -142575734#2 -142575712 -142575737#2 246099079 26991766#12 -142575704#13 142575704#12 142575704#10 887625211#1 843190001#9 843190001#8 843190001#7 843190001#6 843190001#5 142575656#8 26004787#0 26004787#1 26004787#2 -142575674#5 143308542#8 81096580#4 81096580#1 143308546#1 143308546#3 887910341#21 887910341#22 887910341#23 887910341#24 887910341#25 887868572#2 143308532#1 143308532#4 143308532#7" busStop="837696418"/> <!-- James-Franck-Straße -->
        <ride busStop="-1553912606" lines="160:1" intended="pt_bus_160:1.1" depart="1527.00"/> <!-- Akeleiweg -->
        <walk edges="-141968830#1 141968830#1"/>
    </person>
    <person id="ped48" type="ped_pedestrian" depart="58.73">
        <walk edges="976735033#1 -976735033#0 -187122892#2 -187122892#1 146511461#4 146511461#3 146511461#2 146511461#0 977639651#1" busStop="3812676495"/> <!-- Otto-Franke-Straße -->
        <ride busStop="1383533461" lines="163:1" intended="pt_bus_163:1.0" depart="307.00"/> <!-- Adlergestell/Glienicker Weg -->
        <walk edges="318210360#0 336335403#1 336335403#0 152839434#1 -43660343#0 24152593#1 24152593#2 24152593#3 24152597#0 24152597#1 24152597#2 24152597#4 24152597#6"/>
    </person>
    <person id="ped49" type="ped_pedestrian" depart="59.96">
        <walk edges="887712504#2 24792006#1 138624477#3 138624477#4 38568630#0 38568630#1 38568630#2 38568630#4 38568646 54039583#5 54039583#6 54039583#7 54039583#8 53385406#0 138624490 -38574189#9 -52036541#0 925194323 38569950#1 360099553 -38569937#0 -142575742#0 840221702#3 840221703#6 38915289#5 840221703#4 840221700#2 840221700#3 840221709#8 840221709#7 -143308521#1 -143308521#2 -143308521#3 -143308521#4 840221714#4 840221714#3 840221714#2 840221714#1 -143308521#9 -143308521#11 840221735#7 840221735#6 840221707#0 840221707#4 840221739#13 840221739#12 840221739#11 840221739#10 840221739#9 840221732#4 840221732#3 840221732#2 142575655#7 142575655#6 142575655#5 840221733#0 840221733#1 840221733#2 142575700#6 142575700#5 142575700#4 840221733#4 840221733#5"/>
    </person>
    <person id="ped50" type="ped_pedestrian" depart="61.18">
        <walk edges="-134100875 -24733617#1 -24733617#0 71028774#0 71028777#5 71028777#3 142575692#1 143308546#3 81096589#1 81096589#4 143308542#6" busStop="306982602"/> <!-- Magnusstraße -->
        <ride busStop="5315085711" lines="164:1" intended="pt_bus_164:1.0" depart="616.00"/> <!-- S Adlershof -->
        <ride busStop="1383533461" lines="163:2" intended="pt_bus_163:2.1" depart="1009.00"/> <!-- Adlergestell/Glienicker Weg -->
        <walk edges="318210360#0 336335403#1 336335403#0 152839434#1 -43660343#0 24152593#1 24152593#2 24152593#3 24152593#5 24152603#1 24152603#2 257005614#8 -24152572#4 581596945"/>
    </person>
    <person id="ped51" type="ped_pedestrian" depart="62.41">
        <walk edges="53529600#2 53529600#3 53529600#4 -53529557#2 -53529557#1 -53529557#0 -53529200#3 26444467#9 -320153863#0 -320153863#4 40089662#6 886496555#4 886496555#5 153021549#0 153021549#1" busStop="1862990707"/> <!-- Otto-Franke-Straße -->
        <ride busStop="1656195133" lines="163:0" intended="pt_bus_163:0.0" depart="485.00"/> <!-- S Adlershof -->
        <ride busStop="301331956" lines="162:0" intended="pt_bus_162:0.1" depart="693.00"/> <!-- Magnusstraße -->
        <walk edges="143308546#1 143308546#3 142575692#1 71028777#3 71028777#5 71028774#0 71028774#1 70133621#0 70133621#1 149670380#1 149670380#2 24791993#0 24791993#1 24791993#2"/>
    </person>
    <person id="ped53" type="ped_pedestrian" depart="64.85">
        <walk edges="-178028204#2 178028204#3 178028204#4 178028204#9 166142947 152839426 -152839428 45875465 679901152#0 540388579#0 329733350 206889086#1 541676219 318210389#0 52080655#0 -318210394#0 683972873#2 683972873#1 683972875#3 683972875#2 683972875#1 143308527#5 143308527#4"/>
    </person>
    <person id="ped54" type="ped_pedestrian" depart="66.08">
        <walk edges="143482766#2 -143482766#1 411478098 -143482755#0 142575709#1 -137483015#0 -137483015#2 -137483015#3 -137483014#0 -142575704#21 -142575704#22 -142575704#23 318210364#1 887612168#6"/>
    </person>
    <person id="ped55" type="ped_pedestrian" depart="67.30">
        <walk edges="840565793#3 840565793#4 840565793#5 -887919959#2 -887919959#3 840221730#0 840221716#3 840221716#2 840221716#1 840221716#0 840221715#2 840221715#0 143308521#13 143308521#12 143308521#11 840221713#6 840221713#5 840221713#4 840221714#5 143308521#4 840221713#1 143308521#2 143308521#1 840221708#1 840221708#2 -115092088#0 -38574191 -24791996#1 -24791996#0 138624421#29 586124047 -586124047"/>
    </person>
    <person id="ped56" type="ped_pedestrian" depart="68.52">
        <walk edges="20553015#1 23925124#0 -23925119#0 -23925119#1 85088361#1 85088379 424689981 578659350#1 578659352#1 578659352#2 142575661#5 142575661#4 142575661#3 142575661#2 142575661#1 -314415495#19"/>
    </person>