<?xml version="1.0" encoding="UTF-8"?>

<!-- generated on 2021-09-09 11:34:54 by Eclipse SUMO netedit Version v1_10_0+0616-e81b748af4b
<configuration xmlns:xsi="http://www.w3.org/2001/XMLSchema-instance" xsi:noNamespaceSchemaLocation="http://sumo.dlr.de/xsd/netconvertConfiguration.xsd">

    <input>
        <sumo-net-file value="C:\erdm_ja\sip-svn-trunk\papers\DLR\SUMO_Conference2021\tutorial\04_odtraffic\osm.net.xml"/>
    </input>

    <output>
        <output-file value="C:\erdm_ja\sip-svn-trunk\papers\DLR\SUMO_Conference2021\tutorial\05_gtfs\small.net.xml"/>
        <output.street-names value="true"/>
    </output>

    <processing>
        <geometry.min-radius.fix.railways value="false"/>
        <geometry.max-grade.fix value="false"/>
        <offset.disable-normalization value="true"/>
        <lefthand value="false"/>
    </processing>

    <junctions>
        <no-internal-links value="false"/>
        <no-turnarounds value="true"/>
        <junctions.corner-detail value="5"/>
        <junctions.limit-turn-speed value="5.5"/>
        <rectangular-lane-cut value="false"/>
    </junctions>

    <pedestrian>
        <walkingareas value="true"/>
    </pedestrian>

    <report>
        <aggregate-warnings value="5"/>
    </report>

</configuration>
-->

<net version="1.9" junctionCornerDetail="5" walkingareas="true" limitTurnSpeed="5.50" xmlns:xsi="http://www.w3.org/2001/XMLSchema-instance" xsi:noNamespaceSchemaLocation="http://sumo.dlr.de/xsd/net_file.xsd">

    <location netOffset="-397692.81,-5808927.41" convBoundary="1906.83,738.33,2688.29,1204.35" origBoundary="13.455920,52.421532,13.575739,52.459222" projParameter="+proj=utm +zone=33 +ellps=WGS84 +datum=WGS84 +units=m +no_defs"/>

    <type id="cycleway.lane" allow="bicycle" bikeLaneWidth="-1.00"/>
    <type id="cycleway.lane|highway.primary" priority="12" numLanes="2" speed="13.89" disallow="pedestrian tram rail_urban rail rail_electric rail_fast ship" oneway="1" sidewalkWidth="-1.00" bikeLaneWidth="-1.00"/>
    <type id="cycleway.lane|highway.residential" priority="3" numLanes="1" speed="13.89" disallow="pedestrian tram rail_urban rail rail_electric rail_fast ship" oneway="1" sidewalkWidth="-1.00" bikeLaneWidth="-1.00"/>
    <type id="cycleway.lane|highway.secondary" priority="11" numLanes="1" speed="13.89" disallow="pedestrian tram rail_urban rail rail_electric rail_fast ship" oneway="1" sidewalkWidth="-1.00" bikeLaneWidth="-1.00"/>
    <type id="cycleway.lane|highway.tertiary" priority="10" numLanes="1" speed="13.89" disallow="pedestrian tram rail_urban rail rail_electric rail_fast ship" oneway="1" sidewalkWidth="-1.00" bikeLaneWidth="-1.00"/>
    <type id="cycleway.lane|highway.tertiary_link" priority="5" numLanes="1" speed="13.89" disallow="pedestrian tram rail_urban rail rail_electric rail_fast ship" oneway="1" sidewalkWidth="-1.00" bikeLaneWidth="-1.00"/>
    <type id="cycleway.lane|highway.unclassified" priority="4" numLanes="1" speed="13.89" disallow="pedestrian tram rail_urban rail rail_electric rail_fast ship" oneway="1" sidewalkWidth="-1.00" bikeLaneWidth="-1.00"/>
    <type id="cycleway.opposite_lane" allow="bicycle" bikeLaneWidth="-1.00"/>
    <type id="cycleway.opposite_track" allow="bicycle" bikeLaneWidth="-1.00"/>
    <type id="cycleway.track" allow="bicycle" bikeLaneWidth="-1.00"/>
    <type id="cycleway.track|highway.primary" priority="12" numLanes="2" speed="13.89" disallow="pedestrian tram rail_urban rail rail_electric rail_fast ship" oneway="1" sidewalkWidth="-1.00" bikeLaneWidth="-1.00"/>
    <type id="cycleway.track|highway.secondary" priority="11" numLanes="1" speed="13.89" disallow="pedestrian tram rail_urban rail rail_electric rail_fast ship" oneway="1" sidewalkWidth="-1.00" bikeLaneWidth="-1.00"/>
    <type id="cycleway.track|highway.tertiary" priority="10" numLanes="1" speed="13.89" disallow="pedestrian tram rail_urban rail rail_electric rail_fast ship" oneway="1" sidewalkWidth="-1.00" bikeLaneWidth="-1.00"/>
    <type id="cycleway.track|highway.unclassified" priority="4" numLanes="1" speed="13.89" disallow="pedestrian tram rail_urban rail rail_electric rail_fast ship" oneway="1" sidewalkWidth="-1.00" bikeLaneWidth="-1.00"/>
    <type id="highway.bridleway" priority="1" numLanes="1" speed="2.78" allow="pedestrian" oneway="1" width="2.00"/>
    <type id="highway.bus_guideway" priority="1" numLanes="1" speed="13.89" allow="bus" oneway="1"/>
    <type id="highway.cycleway" priority="1" numLanes="1" speed="8.33" allow="bicycle" oneway="1" width="1.00"/>
    <type id="highway.footway" priority="1" numLanes="1" speed="2.78" allow="pedestrian" oneway="1" width="2.00"/>
    <type id="highway.ford" priority="1" numLanes="1" speed="2.78" allow="army" oneway="1"/>
    <type id="highway.living_street" priority="2" numLanes="1" speed="2.78" disallow="tram rail_urban rail rail_electric rail_fast ship" oneway="1"/>
    <type id="highway.motorway" priority="14" numLanes="2" speed="27.78" allow="private emergency authority army vip passenger hov taxi bus coach delivery truck trailer motorcycle evehicle custom1 custom2" oneway="1"/>
    <type id="highway.motorway_link" priority="9" numLanes="1" speed="16.67" allow="private emergency authority army vip passenger hov taxi bus coach delivery truck trailer motorcycle evehicle custom1 custom2" oneway="1"/>
    <type id="highway.path" priority="1" numLanes="1" speed="2.78" allow="pedestrian bicycle" oneway="1" width="2.00"/>
    <type id="highway.pedestrian" priority="1" numLanes="1" speed="2.78" allow="pedestrian" oneway="1" width="2.00"/>
    <type id="highway.primary" priority="12" numLanes="2" speed="13.89" disallow="pedestrian tram rail_urban rail rail_electric rail_fast ship" oneway="1" sidewalkWidth="-1.00"/>
    <type id="highway.primary_link" priority="7" numLanes="1" speed="13.89" disallow="pedestrian tram rail_urban rail rail_electric rail_fast ship" oneway="1" sidewalkWidth="-1.00"/>
    <type id="highway.raceway" priority="15" numLanes="2" speed="83.33" allow="vip" oneway="1"/>
    <type id="highway.residential" priority="3" numLanes="1" speed="13.89" disallow="pedestrian tram rail_urban rail rail_electric rail_fast ship" oneway="1" sidewalkWidth="-1.00"/>
    <type id="highway.secondary" priority="11" numLanes="1" speed="13.89" disallow="pedestrian tram rail_urban rail rail_electric rail_fast ship" oneway="1" sidewalkWidth="-1.00"/>
    <type id="highway.secondary_link" priority="6" numLanes="1" speed="13.89" disallow="pedestrian tram rail_urban rail rail_electric rail_fast ship" oneway="1" sidewalkWidth="-1.00"/>
    <type id="highway.service" priority="1" numLanes="1" speed="5.56" allow="pedestrian delivery bicycle" oneway="1"/>
    <type id="highway.service|railway.tram" priority="17" numLanes="1" speed="13.89" allow="pedestrian delivery bicycle tram" oneway="1"/>
    <type id="highway.stairs" priority="1" numLanes="1" speed="1.39" allow="pedestrian" oneway="1" width="2.00"/>
    <type id="highway.step" priority="1" numLanes="1" speed="1.39" allow="pedestrian" oneway="1" width="2.00"/>
    <type id="highway.steps" priority="1" numLanes="1" speed="1.39" allow="pedestrian" oneway="1" width="2.00"/>
    <type id="highway.tertiary" priority="10" numLanes="1" speed="13.89" disallow="pedestrian tram rail_urban rail rail_electric rail_fast ship" oneway="1" sidewalkWidth="-1.00"/>
    <type id="highway.tertiary_link" priority="5" numLanes="1" speed="13.89" disallow="pedestrian tram rail_urban rail rail_electric rail_fast ship" oneway="1" sidewalkWidth="-1.00"/>
    <type id="highway.track" priority="1" numLanes="1" speed="5.56" allow="pedestrian motorcycle moped bicycle" oneway="1"/>
    <type id="highway.trunk" priority="13" numLanes="2" speed="13.89" disallow="pedestrian bicycle tram rail_urban rail rail_electric rail_fast ship" oneway="1"/>
    <type id="highway.trunk_link" priority="8" numLanes="1" speed="13.89" disallow="pedestrian bicycle tram rail_urban rail rail_electric rail_fast ship" oneway="1"/>
    <type id="highway.unclassified" priority="4" numLanes="1" speed="13.89" disallow="pedestrian tram rail_urban rail rail_electric rail_fast ship" oneway="1" sidewalkWidth="-1.00"/>
    <type id="highway.unsurfaced" priority="1" numLanes="1" speed="8.33" disallow="tram rail_urban rail rail_electric rail_fast ship" oneway="1"/>
    <type id="railway.highspeed" priority="21" numLanes="1" speed="69.44" allow="rail_fast" oneway="1"/>
    <type id="railway.light_rail" priority="19" numLanes="1" speed="27.78" allow="rail_urban" oneway="1"/>
    <type id="railway.preserved" priority="16" numLanes="1" speed="27.78" allow="rail" oneway="1"/>
    <type id="railway.rail" priority="20" numLanes="1" speed="44.44" allow="rail" oneway="1"/>
    <type id="railway.subway" priority="18" numLanes="1" speed="27.78" allow="rail_urban" oneway="1"/>
    <type id="railway.tram" priority="17" numLanes="1" speed="13.89" allow="tram" oneway="1"/>

    <edge id=":1292264805_0" function="internal">
        <lane id=":1292264805_0_0" index="0" disallow="pedestrian tram rail_urban rail rail_electric rail_fast ship" speed="13.89" length="5.77" shape="2359.55,794.28 2358.25,793.16 2357.39,792.36 2356.57,791.53 2355.40,790.28"/>
    </edge>
    <edge id=":1292264805_1" function="internal">
        <lane id=":1292264805_1_0" index="0" disallow="pedestrian tram rail_urban rail rail_electric rail_fast ship" speed="13.89" length="5.41" shape="2357.73,788.09 2358.83,789.26 2359.60,790.05 2360.41,790.79 2361.62,791.84"/>
    </edge>
    <edge id=":1292264805_c0" function="crossing" crossingEdges="-142575688#9 142575688#9">
        <lane id=":1292264805_c0_0" index="0" allow="pedestrian" speed="1.00" length="6.40" width="4.00" shape="2361.14,789.32 2356.99,794.20"/>
    </edge>
    <edge id=":1292264805_w0" function="walkingarea">
        <lane id=":1292264805_w0_0" index="0" allow="pedestrian" speed="1.00" length="4.13" width="4.00" shape="2354.23,791.37 2352.77,792.74 2357.21,797.02 2358.51,795.49 2357.55,794.67 2356.85,794.05 2356.28,793.52 2355.74,792.98 2355.09,792.30"/>
    </edge>
    <edge id=":1292264805_w1" function="walkingarea">
        <lane id=":1292264805_w1_0" index="0" allow="pedestrian" speed="1.00" length="3.45" width="4.00" shape="2362.66,790.62 2363.96,789.10 2363.65,787.17 2362.15,785.86 2360.36,785.63 2358.90,787.00 2359.66,787.81 2360.23,788.41 2360.71,788.89 2361.20,789.35 2361.82,789.90"/>
    </edge>
    <edge id=":1292264813_0" function="internal">
        <lane id=":1292264813_0_0" index="0" disallow="pedestrian tram rail_urban rail rail_electric rail_fast ship" speed="13.89" length="4.99" shape="2374.43,806.94 2370.62,803.72"/>
    </edge>
    <edge id=":1292264813_1" function="internal">
        <lane id=":1292264813_1_0" index="0" disallow="pedestrian tram rail_urban rail rail_electric rail_fast ship" speed="13.89" length="5.00" shape="2372.70,801.28 2376.51,804.51"/>
    </edge>
    <edge id=":1292264813_c0" function="crossing" crossingEdges="-142575688#7 142575688#7">
        <lane id=":1292264813_c0_0" index="0" allow="pedestrian" speed="1.00" length="6.40" width="4.00" shape="2375.96,802.01 2371.87,806.93"/>
    </edge>
    <edge id=":1292264813_w0" function="walkingarea">
        <lane id=":1292264813_w0_0" index="0" allow="pedestrian" speed="1.00" length="3.45" width="4.00" shape="2369.58,804.93 2368.28,806.45 2372.11,809.69 2373.36,808.14 2370.33,805.65"/>
    </edge>
    <edge id=":1292264813_w1" function="walkingarea">
        <lane id=":1292264813_w1_0" index="0" allow="pedestrian" speed="1.00" length="3.37" width="4.00" shape="2374.42,800.73 2377.57,803.31 2378.83,801.75 2378.46,799.98 2376.97,798.64 2375.03,798.54 2373.73,800.06"/>
    </edge>
    <edge id=":1292264824_0" function="internal">
        <lane id=":1292264824_0_0" index="0" allow="delivery bicycle" speed="4.98" length="5.01" shape="2370.27,803.42 2369.08,802.65 2367.95,802.43 2366.90,802.78 2365.93,803.70"/>
    </edge>
    <edge id=":1292264824_1" function="internal">
        <lane id=":1292264824_1_0" index="0" disallow="pedestrian tram rail_urban rail rail_electric rail_fast ship" speed="13.89" length="9.41" shape="2370.27,803.42 2363.12,797.32"/>
    </edge>
    <edge id=":1292264824_2" function="internal">
        <lane id=":1292264824_2_0" index="0" disallow="pedestrian tram rail_urban rail rail_electric rail_fast ship" speed="13.89" length="9.41" shape="2365.19,794.88 2372.35,800.99"/>
    </edge>
    <edge id=":1292264824_3" function="internal">
        <lane id=":1292264824_3_0" index="0" allow="delivery bicycle" speed="6.91" length="4.94" shape="2365.19,794.88 2366.96,796.90 2367.67,799.04"/>
    </edge>
    <edge id=":1292264824_7" function="internal">
        <lane id=":1292264824_7_0" index="0" allow="delivery bicycle" speed="6.91" length="5.06" shape="2367.67,799.04 2367.33,801.30 2365.93,803.70"/>
    </edge>
    <edge id=":1292264824_4" function="internal">
        <lane id=":1292264824_4_0" index="0" allow="delivery bicycle" speed="5.10" length="4.99" shape="2363.41,801.72 2364.13,800.51 2364.31,799.38 2363.98,798.31 2363.12,797.32"/>
    </edge>
    <edge id=":1292264824_5" function="internal">
        <lane id=":1292264824_5_0" index="0" allow="delivery bicycle" speed="6.81" length="10.33" shape="2363.41,801.72 2365.44,799.80 2367.61,799.03 2369.91,799.43 2372.35,800.99"/>
    </edge>
    <edge id=":1292264824_6" function="internal">
        <lane id=":1292264824_6_0" index="0" allow="pedestrian delivery bicycle" speed="3.65" length="4.67" shape="2363.41,801.72 2364.78,801.27 2365.66,801.45 2366.04,802.26 2365.93,803.70"/>
    </edge>
    <edge id=":1292264824_c0" function="crossing" crossingEdges="-142575688#8 142575688#8">
        <lane id=":1292264824_c0_0" index="0" allow="pedestrian" speed="1.00" length="6.40" width="4.00" shape="2371.87,798.47 2367.71,803.34"/>
    </edge>
    <edge id=":1292264824_w0" function="walkingarea">
        <lane id=":1292264824_w0_0" index="0" allow="pedestrian" speed="1.00" length="4.77" width="4.00" shape="2362.08,798.53 2360.78,800.06 2362.15,800.74 2364.67,802.71 2364.67,802.71 2367.19,804.68 2367.94,806.16 2369.24,804.64 2366.19,802.04"/>
    </edge>
    <edge id=":1292264824_w1" function="walkingarea">
        <lane id=":1292264824_w1_0" index="0" allow="pedestrian" speed="1.00" length="6.38" width="4.00" shape="2370.35,797.17 2373.39,799.77 2374.69,798.25 2367.53,792.14 2366.23,793.66"/>
    </edge>
    <edge id=":1292264930_0" function="internal">
        <lane id=":1292264930_0_0" index="0" disallow="pedestrian tram rail_urban rail rail_electric rail_fast ship" speed="13.89" length="9.50" shape="2525.62,840.74 2519.47,847.98"/>
    </edge>
    <edge id=":1292264930_1" function="internal">
        <lane id=":1292264930_1_0" index="0" allow="delivery bicycle" speed="7.34" length="4.62" shape="2525.62,840.74 2523.43,842.54 2521.68,842.90"/>
    </edge>
    <edge id=":1292264930_7" function="internal">
        <lane id=":1292264930_7_0" index="0" allow="delivery bicycle" speed="7.34" length="7.28" shape="2521.68,842.90 2520.96,843.05 2518.20,842.27 2515.17,840.19"/>
    </edge>
    <edge id=":1292264930_2" function="internal">
        <lane id=":1292264930_2_0" index="0" allow="delivery bicycle" speed="5.69" length="6.72" shape="2517.26,837.77 2519.08,839.07 2520.68,839.66 2522.04,839.53 2523.16,838.69"/>
    </edge>
    <edge id=":1292264930_3" function="internal">
        <lane id=":1292264930_3_0" index="0" allow="delivery bicycle" speed="7.36" length="11.86" shape="2517.26,837.77 2519.77,840.44 2520.98,843.04 2520.88,845.55 2519.47,847.98"/>
    </edge>
    <edge id=":1292264930_4" function="internal">
        <lane id=":1292264930_4_0" index="0" allow="pedestrian delivery bicycle" speed="3.65" length="4.67" shape="2517.26,837.77 2517.65,839.15 2517.43,840.02 2516.60,840.37 2515.17,840.19"/>
    </edge>
    <edge id=":1292264930_5" function="internal">
        <lane id=":1292264930_5_0" index="0" allow="delivery bicycle" speed="5.71" length="6.73" shape="2517.05,845.89 2517.69,844.65 2517.59,843.29 2516.75,841.80 2515.17,840.19"/>
    </edge>
    <edge id=":1292264930_6" function="internal">
        <lane id=":1292264930_6_0" index="0" disallow="pedestrian tram rail_urban rail rail_electric rail_fast ship" speed="13.89" length="9.45" shape="2517.05,845.89 2523.16,838.69"/>
    </edge>
    <edge id=":1292264930_c0" function="crossing" crossingEdges="142575691#5 -142575691#5">
        <lane id=":1292264930_c0_0" index="0" allow="pedestrian" speed="1.00" length="6.40" width="4.00" shape="2520.65,839.19 2525.56,843.30"/>
    </edge>
    <edge id=":1292264930_w0" function="walkingarea">
        <lane id=":1292264930_w0_0" index="0" allow="pedestrian" speed="1.00" length="6.45" width="4.00" shape="2520.68,849.03 2522.20,850.33 2528.38,843.05 2526.84,841.77 2524.28,844.84"/>
    </edge>
    <edge id=":1292264930_w1" function="walkingarea">
        <lane id=":1292264930_w1_0" index="0" allow="pedestrian" speed="1.00" length="5.32" width="4.00" shape="2519.37,840.73 2521.93,837.66 2520.40,836.38 2518.30,836.55 2516.21,838.98 2516.21,838.98 2514.13,841.41 2514.32,843.54 2515.83,844.85"/>
    </edge>
    <edge id=":1292264931_0" function="internal">
        <lane id=":1292264931_0_0" index="0" allow="pedestrian delivery bicycle" speed="5.11" length="4.93" shape="2495.60,823.42 2494.47,822.70 2493.37,822.50 2492.28,822.81 2491.23,823.63"/>
    </edge>
    <edge id=":1292264931_1" function="internal">
        <lane id=":1292264931_1_0" index="0" allow="pedestrian delivery bicycle" speed="3.65" length="4.67" shape="2495.60,823.42 2495.21,822.04 2495.43,821.17 2496.25,820.82 2497.68,820.99"/>
    </edge>
    <edge id=":1292264931_2" function="internal">
        <lane id=":1292264931_2_0" index="0" allow="pedestrian delivery bicycle" speed="5.56" length="9.88" shape="2488.92,821.42 2491.04,819.76 2493.20,819.14 2495.42,819.55 2497.68,820.99"/>
    </edge>
    <edge id=":1292264931_3" function="internal">
        <lane id=":1292264931_3_0" index="0" allow="pedestrian delivery bicycle" speed="3.65" length="4.67" shape="2488.92,821.42 2490.33,821.11 2491.19,821.37 2491.48,822.22 2491.23,823.63"/>
    </edge>
    <edge id=":1292264931_w0" function="walkingarea">
        <lane id=":1292264931_w0_0" index="0" allow="pedestrian" speed="1.00" length="6.54" width="3.20" shape="2494.56,824.64 2496.64,822.21 2496.64,822.21 2498.72,819.78 2497.11,816.42 2495.62,815.09 2487.77,820.31 2490.08,822.52 2490.08,822.52 2492.38,824.74 2494.18,824.37 2493.81,824.22 2493.45,824.18 2493.09,824.25 2492.73,824.44"/>
    </edge>
    <edge id=":1292264935_0" function="internal">
        <lane id=":1292264935_0_0" index="0" allow="pedestrian delivery bicycle" speed="5.56" length="0.51" shape="2416.39,781.56 2416.24,781.59 2416.14,781.62 2416.05,781.67 2415.91,781.74"/>
    </edge>
    <edge id=":1292264935_1" function="internal">
        <lane id=":1292264935_1_0" index="0" allow="pedestrian delivery bicycle" speed="3.65" length="4.67" shape="2416.39,781.56 2415.05,781.02 2414.49,780.32 2414.72,779.46 2415.74,778.43"/>
    </edge>
    <edge id=":1292264935_2" function="internal">
        <lane id=":1292264935_2_0" index="0" allow="pedestrian delivery bicycle" speed="5.56" length="1.53" shape="2414.32,778.97 2414.71,778.75 2414.99,778.62 2415.29,778.53 2415.74,778.43"/>
    </edge>
    <edge id=":1292264935_3" function="internal">
        <lane id=":1292264935_3_0" index="0" allow="pedestrian delivery bicycle" speed="3.65" length="4.67" shape="2414.32,778.97 2415.76,779.06 2416.50,779.56 2416.56,780.45 2415.91,781.74"/>
    </edge>
    <edge id=":1292264935_w0" function="walkingarea">
        <lane id=":1292264935_w0_0" index="0" allow="pedestrian" speed="1.00" length="2.51" width="3.20" shape="2416.71,783.13 2416.06,780.00 2416.06,780.00 2415.41,776.86 2413.52,777.58 2415.12,780.36 2415.12,780.36 2416.71,783.13"/>
    </edge>
    <edge id=":1292264938_0" function="internal">
        <lane id=":1292264938_0_0" index="0" allow="pedestrian delivery bicycle" speed="3.65" length="4.67" shape="2405.39,763.82 2406.76,763.39 2407.64,763.59 2408.01,764.40 2407.87,765.84"/>
    </edge>
    <edge id=":1292264941_0" function="internal">
        <lane id=":1292264941_0_0" index="0" allow="pedestrian delivery bicycle" speed="3.65" length="4.67" shape="2391.06,751.54 2392.47,751.22 2393.32,751.48 2393.63,752.32 2393.38,753.74"/>
    </edge>
    <edge id=":1292264947_0" function="internal">
        <lane id=":1292264947_0_0" index="0" disallow="pedestrian tram rail_urban rail rail_electric rail_fast ship" speed="13.89" length="9.10" shape="2387.65,817.88 2380.71,812.01"/>
    </edge>
    <edge id=":1292264947_1" function="internal">
        <lane id=":1292264947_1_0" index="0" allow="delivery bicycle" speed="7.37" length="4.37" shape="2387.65,817.88 2385.97,815.71 2385.68,814.12"/>
    </edge>
    <edge id=":1292264947_7" function="internal">
        <lane id=":1292264947_7_0" index="0" allow="delivery bicycle" speed="7.37" length="7.32" shape="2385.68,814.12 2385.52,813.26 2386.31,810.54 2388.33,807.55"/>
    </edge>
    <edge id=":1292264947_2" function="internal">
        <lane id=":1292264947_2_0" index="0" allow="delivery bicycle" speed="5.73" length="6.64" shape="2390.78,809.61 2389.49,811.43 2388.89,813.02 2388.99,814.37 2389.77,815.49"/>
    </edge>
    <edge id=":1292264947_3" function="internal">
        <lane id=":1292264947_3_0" index="0" allow="delivery bicycle" speed="7.37" length="11.69" shape="2390.78,809.61 2388.17,812.11 2385.62,813.35 2383.13,813.31 2380.71,812.01"/>
    </edge>
    <edge id=":1292264947_4" function="internal">
        <lane id=":1292264947_4_0" index="0" allow="pedestrian delivery bicycle" speed="3.65" length="4.67" shape="2390.78,809.61 2389.39,810.01 2388.53,809.80 2388.17,808.98 2388.33,807.55"/>
    </edge>
    <edge id=":1292264947_5" function="internal">
        <lane id=":1292264947_5_0" index="0" allow="delivery bicycle" speed="5.73" length="6.64" shape="2382.72,809.52 2383.95,810.11 2385.30,809.98 2386.76,809.13 2388.33,807.55"/>
    </edge>
    <edge id=":1292264947_6" function="internal">
        <lane id=":1292264947_6_0" index="0" disallow="pedestrian tram rail_urban rail rail_electric rail_fast ship" speed="13.89" length="9.24" shape="2382.72,809.52 2389.77,815.49"/>
    </edge>
    <edge id=":1292264947_c0" function="crossing" crossingEdges="-142575688#6 142575688#6">
        <lane id=":1292264947_c0_0" index="0" allow="pedestrian" speed="1.00" length="6.40" width="4.00" shape="2389.33,812.96 2385.10,817.76"/>
    </edge>
    <edge id=":1292264947_w0" function="walkingarea">
        <lane id=":1292264947_w0_0" index="0" allow="pedestrian" speed="1.00" length="6.10" width="4.00" shape="2379.70,813.26 2378.44,814.81 2385.27,820.58 2386.59,819.08 2383.60,816.43"/>
    </edge>
    <edge id=":1292264947_w1" function="walkingarea">
        <lane id=":1292264947_w1_0" index="0" allow="pedestrian" speed="1.00" length="5.29" width="4.00" shape="2387.84,811.64 2390.83,814.29 2392.16,812.79 2392.00,810.65 2389.56,808.58 2389.56,808.58 2387.11,806.52 2384.98,806.72 2383.72,808.28"/>
    </edge>
    <edge id=":1292268136_0" function="internal">
        <lane id=":1292268136_0_0" index="0" allow="pedestrian delivery bicycle" speed="5.56" length="4.62" shape="2433.39,789.36 2429.85,786.39"/>
    </edge>
    <edge id=":1292268136_1" function="internal">
        <lane id=":1292268136_1_0" index="0" allow="pedestrian delivery bicycle" speed="3.65" length="4.67" shape="2433.39,789.36 2433.04,787.96 2433.28,787.10 2434.12,786.77 2435.54,786.99"/>
    </edge>
    <edge id=":1292268136_2" function="internal">
        <lane id=":1292268136_2_0" index="0" allow="pedestrian delivery bicycle" speed="5.56" length="4.87" shape="2431.81,783.86 2435.54,786.99"/>
    </edge>
    <edge id=":1292268136_3" function="internal">
        <lane id=":1292268136_3_0" index="0" allow="pedestrian delivery bicycle" speed="3.65" length="4.67" shape="2431.81,783.86 2432.27,785.23 2432.09,786.11 2431.29,786.49 2429.85,786.39"/>
    </edge>
    <edge id=":1292268136_w0" function="walkingarea">
        <lane id=":1292268136_w0_0" index="0" allow="pedestrian" speed="1.00" length="4.89" width="3.20" shape="2432.32,790.54 2434.47,788.17 2434.47,788.17 2436.62,785.80 2436.49,783.66 2434.98,782.35 2432.79,782.60 2430.83,785.13 2430.83,785.13 2428.87,787.66"/>
    </edge>
    <edge id=":1292283250_0" function="internal">
        <lane id=":1292283250_0_0" index="0" allow="pedestrian delivery bicycle" speed="3.65" length="4.67" shape="2365.97,785.39 2364.59,785.79 2363.72,785.58 2363.37,784.76 2363.53,783.33"/>
    </edge>
    <edge id=":1292283250_w0" function="walkingarea">
        <lane id=":1292283250_w0_0" index="0" allow="pedestrian" speed="1.00" length="3.12" width="3.20" shape="2367.20,786.42 2364.75,784.36 2364.75,784.36 2362.31,782.30 2362.28,785.71 2363.79,787.02"/>
    </edge>
    <edge id=":1292283271_0" function="internal">
        <lane id=":1292283271_0_0" index="0" allow="pedestrian delivery bicycle" speed="3.65" length="4.67" shape="2380.87,798.13 2379.48,798.53 2378.61,798.32 2378.26,797.50 2378.42,796.07"/>
    </edge>
    <edge id=":1292283271_w0" function="walkingarea">
        <lane id=":1292283271_w0_0" index="0" allow="pedestrian" speed="1.00" length="3.08" width="3.20" shape="2382.09,799.16 2379.65,797.10 2379.65,797.10 2377.20,795.04 2377.22,798.36 2378.70,799.71"/>
    </edge>
    <edge id=":1293775012_w0" function="walkingarea">
        <lane id=":1293775012_w0_0" index="0" allow="pedestrian" speed="1.00" length="0.28" width="2.00" shape="2374.37,847.50 2372.83,846.22 2372.66,846.42 2374.17,847.73"/>
    </edge>
    <edge id=":1293775033_w0" function="walkingarea">
        <lane id=":1293775033_w0_0" index="0" allow="pedestrian" speed="1.00" length="0.30" width="2.00" shape="2398.78,868.97 2397.26,867.67 2397.07,867.89 2398.58,869.20"/>
    </edge>
    <edge id=":1293775050_w0" function="walkingarea">
        <lane id=":1293775050_w0_0" index="0" allow="pedestrian" speed="1.00" length="0.10" width="2.00" shape="2421.52,893.05 2419.94,891.83 2420.02,891.74 2421.44,893.14 2421.51,893.07 2421.50,893.08 2421.49,893.10 2421.47,893.11 2421.46,893.12"/>
    </edge>
    <edge id=":1298598000_0" function="internal">
        <lane id=":1298598000_0_0" index="0" allow="pedestrian delivery bicycle" speed="3.65" length="4.67" shape="2363.22,807.17 2361.85,807.63 2360.98,807.45 2360.59,806.65 2360.70,805.21"/>
    </edge>
    <edge id=":1308298545_w0" function="walkingarea">
        <lane id=":1308298545_w0_0" index="0" allow="pedestrian" speed="1.00" length="4.04" width="2.00" shape="2519.08,816.93 2520.38,815.42 2516.59,812.15 2515.29,813.67 2515.44,815.87 2517.00,817.12 2518.70,816.66 2518.34,816.50 2517.99,816.47 2517.66,816.56 2517.33,816.78"/>
    </edge>
    <edge id=":1308298546_w0" function="walkingarea">
        <lane id=":1308298546_w0_0" index="0" allow="pedestrian" speed="1.00" length="4.08" width="2.00" shape="2511.36,826.48 2512.65,824.95 2512.54,822.70 2510.98,821.45 2508.98,821.56 2507.56,822.97"/>
    </edge>
    <edge id=":1308298548_w0" function="walkingarea">
        <lane id=":1308298548_w0_0" index="0" allow="pedestrian" speed="1.00" length="3.95" width="2.00" shape="2500.02,815.42 2501.43,814.00 2499.78,810.91 2497.78,811.05 2496.47,814.14 2497.96,815.47 2499.66,815.11 2499.31,814.94 2498.97,814.88 2498.64,814.95 2498.30,815.15"/>
    </edge>
    <edge id=":1308298598_w0" function="walkingarea">
        <lane id=":1308298598_w0_0" index="0" allow="pedestrian" speed="1.00" length="4.10" width="2.00" shape="2505.31,805.08 2506.62,803.57 2502.81,800.29 2501.51,801.81 2501.53,804.00 2503.06,805.29 2504.90,804.78 2504.51,804.62 2504.14,804.59 2503.78,804.69 2503.42,804.92"/>
    </edge>
    <edge id=":1370020144_0" function="internal">
        <lane id=":1370020144_0_0" index="0" allow="pedestrian delivery bicycle" speed="5.56" length="9.98" shape="2235.58,925.23 2233.22,923.88 2231.82,922.09 2231.40,919.86 2231.95,917.19"/>
    </edge>
    <edge id=":1370020144_1" function="internal">
        <lane id=":1370020144_1_0" index="0" allow="pedestrian delivery bicycle" speed="3.65" length="4.67" shape="2235.58,925.23 2234.76,924.05 2234.68,923.16 2235.35,922.56 2236.76,922.26"/>
    </edge>
    <edge id=":1370020144_2" function="internal">
        <lane id=":1370020144_2_0" index="0" allow="pedestrian delivery bicycle" speed="5.08" length="4.96" shape="2234.96,918.27 2234.69,919.59 2234.90,920.70 2235.59,921.59 2236.76,922.26"/>
    </edge>
    <edge id=":1370020144_3" function="internal">
        <lane id=":1370020144_3_0" index="0" allow="pedestrian delivery bicycle" speed="3.65" length="4.67" shape="2234.96,918.27 2233.80,919.13 2232.92,919.24 2232.30,918.59 2231.95,917.19"/>
    </edge>
    <edge id=":1370020144_w0" function="walkingarea">
        <lane id=":1370020144_w0_0" index="0" allow="pedestrian" speed="1.00" length="7.50" width="3.20" shape="2234.99,926.72 2236.17,923.75 2236.17,923.75 2237.36,920.78 2236.47,918.81 2233.45,917.73 2233.45,917.73 2230.44,916.65 2225.18,921.61 2225.35,923.60 2232.99,925.81 2231.52,924.98 2230.30,924.30 2229.05,923.81 2227.49,923.55"/>
    </edge>
    <edge id=":1370020147_0" function="internal">
        <lane id=":1370020147_0_0" index="0" allow="pedestrian delivery bicycle" speed="3.65" length="4.67" shape="2240.11,894.37 2241.27,893.51 2242.15,893.40 2242.77,894.05 2243.12,895.45"/>
    </edge>
    <edge id=":1370020147_w0" function="walkingarea">
        <lane id=":1370020147_w0_0" index="0" allow="pedestrian" speed="1.00" length="3.02" width="3.20" shape="2243.29,892.79 2241.35,892.31 2238.60,893.83 2241.61,894.91 2241.61,894.91 2244.63,895.99"/>
    </edge>
    <edge id=":1370020154_0" function="internal">