<?xml version="1.0" encoding="UTF-8"?>

<!-- generated on Thu Oct  1 09:44:25 2020 by Eclipse SUMO duarouter Version v1_7_0+0387-4c5c499899
<configuration xmlns:xsi="http://www.w3.org/2001/XMLSchema-instance" xsi:noNamespaceSchemaLocation="http://sumo.dlr.de/xsd/duarouterConfiguration.xsd">

    <input>
        <net-file value="osm.net.xml"/>
        <additional-files value="osm_stops.add.xml,osm_pt.rou.xml"/>
        <route-files value="osm.pedestrian.trips.xml"/>
    </input>

    <output>
        <output-file value="osm.pedestrian.rou.xml"/>
        <alternatives-output value="osm.pedestrian.rou.alt.xml"/>
    </output>

    <processing>
        <routing-threads value="6"/>
    </processing>

    <time>
        <begin value="0"/>
        <end value="3600"/>
    </time>

    <report>
        <no-warnings value="true"/>
        <ignore-errors value="true"/>
        <no-step-log value="true"/>
    </report>

</configuration>
-->

<routes xmlns:xsi="http://www.w3.org/2001/XMLSchema-instance" xsi:noNamespaceSchemaLocation="http://sumo.dlr.de/xsd/routes_file.xsd">
    <vType id="ped_pedestrian" vClass="pedestrian"/>
    <person id="ped0" type="ped_pedestrian" depart="0.00">
        <walk edges="314415495#9 314415495#10 314415495#11 -314415495#12 -314415495#13 -314415495#14 -314415495#15 -314415495#16 -314415495#17 -314415495#19 -314415495#20 -314415495#21 -314415495#22 -314415495#25 -318210361#0 -318210361#3 143308552#1 670062907#1 670062907#2" busStop="464396566"/> <!-- Walther-Nernst-Straße -->
        <ride busStop="301331956" lines="164:0" intended="pt_bus_164:0.0" depart="743.00"/> <!-- Magnusstraße -->
        <walk edges="143308546#3 143308546#4 312889498 142575692#2 71028777#2 71028777#4 71028774#0 71028774#1 -70133621#0 -70133621#1 -149670380#1 -149670384#0 -24791993#0 -24791993#1 -24791993#2 -24791993#4 -24791993#6 840221713#3 840221714#5 143308521#4 -143308521#3 -143308521#2 -143308521#1 840221709#7 840221709#8 840221700#3 840221700#2 840221703#4 38915289#5 38915289#6 -142575742#0 32235088#8 -72077903#0 -360099574#0 -360099566#0 -360099571#1 38568648 138624469#10 -138624469#11 -138624469#6 -138624469#5 -138624469#4 -138624469#3 -138624469#2 -138624469#1 -138624477#4 -138624477#3 -138624477#2"/>
    </person>
    <person id="ped1" type="ped_pedestrian" depart="1.05">
        <walk edges="-578659362 -142598710#0 -142575708#1 142575706 142575707 143308542#17" busStop="1704693451"/> <!-- Walther-Nernst-Straße -->
        <walk edges="670062907#2" busStop="464396566"/> <!-- Walther-Nernst-Straße -->
        <ride busStop="301331956" lines="162:0" intended="pt_bus_162:0.0" depart="223.00"/> <!-- Magnusstraße -->
        <walk edges="143308546#3 143308546#4 312889498 142575692#2 71028777#2 71028777#4 71028774#0 71028774#1 -70133621#0 -70133621#1 -149670380#1 -149670384#0 -24791993#0 -24791993#1 -24791993#2 -24791993#4 -24791993#6 840221713#3 840221714#5 143308521#4 -143308521#3 -143308521#2 -143308521#1 840221709#7 840221709#8 840221700#3 840221700#2 840221703#4 38915289#5 38915289#6 -142575742#0 32235088#8 -72077903#0 -360099574#0 -52036541#0 -38574189#9 138624490 53385406#0 -54039583#6 -54039583#5 -54039583#4 -54039583#3 38568646 -38568630#4"/>
    </person>
    <person id="ped2" type="ped_pedestrian" depart="2.11">
        <walk edges="53021671#0 -40636828#2 -40636828#1 -40636828#0 118230290 840221728#2 840221728#3 840221728#4 840221728#5 840221728#6 840221728#7 840221719#1 840221719#2 840221729#2 -142575655#6 840221729#0 840221732#0 840221731 840221716#3 840221716#2 840221716#1 840221716#0 840221713#8 840221713#7 840221713#6 840221713#5 840221713#4 840221714#5 143308521#4 -143308521#3 -143308521#2 -143308521#1 840221709#7 840221709#8 840221700#3 840221700#2 840221703#4 38915289#5 38915289#6 -142575742#0 32235088#8 -38569950#0 38569950#1"/>
    </person>
    <person id="ped3" type="ped_pedestrian" depart="3.16">
        <walk edges="81096606#2 -31050360#2 -318210377#0 -318210378#0 -318210378#4 -318210378#5" busStop="-945142208"/> <!-- Hans-Schmidt-Straße -->
        <ride busStop="1383533461" lines="163:2" intended="pt_bus_163:2.0" depart="218.00"/>
        <walk edges="318210360#0 318210360#1 192204854#0 670062919#4 670062919#3 670062919#2 670062919#1 270282145#3 24149293 22928749#2 22928686#0 22928686#1 278500217#1 278500217#2 278500217#3 278500217#4 278500217#5 278500217#6 283317444#0 283317444#1 283317444#2 283317444#3 -9859700#6 -9859700#5 -151237874#0"/>
    </person>
    <person id="ped4" type="ped_pedestrian" depart="4.22">
        <walk edges="142575679#5 142575679#3 -142575679#2 -47765623#0 -47765623#2 143308562#1 143308521#4 840221714#5 840221713#4 840221713#5 840221713#6 840221713#7 840221713#8 840221716#0 840221716#1 840221716#2 840221716#3 840221731 840221732#0 840221729#0 -142575655#6 -142575655#5"/>
    </person>
    <person id="ped5" type="ped_pedestrian" depart="5.27">
        <walk edges="-375685718#0 144909690#2" busStop="94487938"/> <!-- Altglienicker Brücke -->
        <ride busStop="1656195133" lines="163:0" intended="pt_bus_163:0.0" depart="180.00"/> <!-- S Adlershof -->
        <ride busStop="1560223236" lines="164:0" intended="pt_bus_164:0.0" depart="595.00"/>
        <walk edges="143308587#1 143308587#0 143308532#0 -47770433 -47770431#1 -25944601#1 -25944601#0 142575659#2 840101817 -143308562#3 143308562#2 -47765623#2 161788772"/>
    </person>
    <person id="ped6" type="ped_pedestrian" depart="6.33">
        <walk edges="-140964910#1 148803134#4 148803134#3 148803134#2 148803134#1 148803134#0 -20551912#0 20551905#2 20551905#1 149611514#9 149611514#8 -23913524#2" busStop="-1383533494"/> <!-- Büchnerweg -->
        <ride busStop="1656195133" lines="164:0" intended="pt_bus_164:0.0" depart="348.00"/> <!-- S Adlershof -->
        <walk edges="206889086#1 152839448 82710639#0 540221756" busStop="1704693444"/> <!-- S Adlershof -->
        <walk edges="540221744 82710639#6 52036180#2 617443825#0 617443821#2 617443821#1 617443821#0 617443823#1 -318210373#0"/>
    </person>
    <person id="ped7" type="ped_pedestrian" depart="7.38">
        <walk edges="320741898#2 -320741897#0 -143482755#3 143482755#4 -629595836 48298278#0 43660343#1 -43660343#0 10735918#0 10735918#1 192204854#0 670062919#4 670062919#3 670062919#2 670062919#1 270282145#3 24149293 22928749#2 22928686#0 22928686#1 22928751"/>
    </person>
    <person id="ped8" type="ped_pedestrian" depart="8.44">
        <walk edges="-38159999#8 -38159999#9 38159999#10 38160000 -172013798#6 -172013798#5 843190016#5 843190016#6 843190016#7 843190012#0 -147859765#7 -147859765#6 843190009#0 843190014#8 147859765#3 147859765#2 147859765#1 147859766 579026208#0 579026237#1 142575691#2 142575691#1 142575691#0 143308542#7 81096580#3 81096580#0 328287366#1 -71028777#1 71028777#2 71028777#4 71028774#0 71028774#1 142575659#0 142575659#1 25944601#0"/>
    </person>
    <person id="ped9" type="ped_pedestrian" depart="9.49">
        <walk edges="586124047 138624421#28 24791996#0 -24791996#1 38574191 115092088#0 840221708#2 840221708#1 143308521#1 143308521#2 840221713#1 143308521#4 840221714#5 840221713#3 -24791993#6 -24791993#4 -24791993#2 -24791993#1 -24791993#0 -149670384#0 -149670380#1 -70133621#1 -70133621#0 71028774#1 71028774#0 71028777#4 71028777#2 -71028777#1 328287366#1 81096580#0 81096580#3 143308542#7 142575691#0 142575691#1 142575691#2 579026237#1 579026208#0 147859766 147859765#1 147859765#2 147859765#3 843190014#8 843190009#0 -147859765#6 -147859765#7 843190012#0 843190016#7 843190016#6 843190016#5 -172013798#5 -172013798#6 38160001#0 -116343628#3"/>
    </person>
    <person id="ped10" type="ped_pedestrian" depart="10.55">
        <walk edges="586124015 138624469#8 138624469#9 38568648 -54039583#10 -54039583#11 -54039583#12 -54039583#14 -54039583#15 -54039583#16 -54039583#17 54039583#18 -54039583#19 54039583#20 141968853#2 141968853#1" busStop="837696912"/> <!-- Akeleiweg -->
        <ride busStop="1560223236" lines="160:0" intended="pt_bus_160:0.1" depart="763.00"/>
        <walk edges="143308587#1 143308587#0 143308542#0 143308542#1" busStop="464396487"/>
        <ride busStop="3834046602" lines="164:1" intended="pt_bus_164:1.1" depart="1136.00"/>
        <walk edges="190928927#2 190928927#3 190928927#4 -27087620#4 408709166#7 -408709166#6 408709166#5 408709166#4"/>
    </person>
    <person id="ped11" type="ped_pedestrian" depart="11.60">
        <walk edges="-821787252 152447118#6 152447118#7 152447118#8 -141968830#1 708546962 -52460499#9 -52460499#8 -52460499#7 -138624432 -138624445#7 -24791997#0 -24791997#1"/>
    </person>
    <person id="ped12" type="ped_pedestrian" depart="12.66">
        <walk edges="841976395#0 843190011#1 843190011#2 843190011#3 841976391#0 841976391#1 -841976403 -581636334#1 581636334#0 142575704#8 -142575704#7 142598716#3 843189998#6 -843832580 843544571#1 131910730#0 142575656#3 -142575708#5 -142575708#4 -142575708#1 142575706 142575707 143308542#18" busStop="464396589"/> <!-- Walther-Nernst-Straße -->
        <ride busStop="3834046604" lines="164:1" intended="pt_bus_164:1.0" depart="669.00"/> <!-- Zinsgutstraße -->
        <walk edges="190928927#13 190928927#14 190928927#15 26814968#0 26814968#1 26815091#0 -26815091#3 -46771533#4 46771533#3 810271768 -810271769"/>
    </person>
    <person id="ped13" type="ped_pedestrian" depart="13.71">
        <walk edges="-152470901 152470902 375685718#0 144909690#2" busStop="94487938"/> <!-- Altglienicker Brücke -->
        <ride busStop="1656195133" lines="163:0" intended="pt_bus_163:0.0" depart="180.00"/> <!-- S Adlershof -->
        <ride busStop="301331956" lines="164:0" intended="pt_bus_164:0.0" depart="595.00"/> <!-- Magnusstraße -->
        <walk edges="143308546#3 143308546#4 312889498 142575692#2 71028777#2 71028777#4 71028774#0 -24733617#0 -156071615#2"/>
    </person>
    <person id="ped14" type="ped_pedestrian" depart="14.77">
        <walk edges="677923383#1 579026183#1 143308546#2 143308546#3 143308546#4 81096589#0 143308542#4 128643753#1 32530656#0 32530656#1 26816413#0 -26816413#1 -26816590#0 26816590#1"/>
    </person>
    <person id="ped15" type="ped_pedestrian" depart="15.82">
        <walk edges="586124030 -138624421#12 138624421#11 -138624421#10 -138624421#9 38568626 -138624469#3 -138624469#4 -138624469#5 -138624469#6 -138624469#11 138624469#10 38568648 -360099571#1 -360099566#0 -360099574#0 -72077903#0 32235088#8 -142575742#0 -135777010#4 -135777010#5 -135777010#6 -135777010#9 -135777010#10 -135777010#11 -135777010#14 -135777010#16 -135777010#17 52081093#1 259433182#3 259433182#4 259433182#5 312192819 52081116#3"/>
    </person>
    <person id="ped16" type="ped_pedestrian" depart="16.88">
        <walk edges="213883654 -245105014#0 245105014#1 180239858#0 -190083610#0 -190083610#1 326994261#0 320741895#0 -190083608#1 -190083608#2 -318210369#0 -318210369#1 -318210367#0 38160001#0 -38160000 -38159999#10 843190002#0 843190013#5"/>
    </person>
    <person id="ped17" type="ped_pedestrian" depart="17.93">
        <walk edges="118230292 35389512 840221728#4 840221728#5 840221728#6 840221728#7 840221719#1 840221719#2 840221729#2 -142575655#6 840221729#0 840221732#0 840221731 840221716#3 840221716#2 840221716#1 840221716#0 142575692#8 142575692#7 142575692#6 142575692#5 239335492#0"/>
    </person>
    <person id="ped18" type="ped_pedestrian" depart="18.99">
        <walk edges="630078134#0 578659327#2 578659327#3 578659327#4 578659327#5 578659327#6 630078162#2 630078162#1 630078162#0 257072321#7 180789857#4 180789857#3 180789857#2 180789857#1 840221719#0 840221728#8 840221728#9 840221718#1 -142575710#7 142575710#8 -318210378#5" busStop="-945142208"/> <!-- Hans-Schmidt-Straße -->
        <ride busStop="1383533461" lines="163:2" intended="pt_bus_163:2.1" depart="818.00"/>
        <walk edges="318210360#0 318210360#1 192204854#0 670062919#4 670062919#3 670062919#2 670062919#1 270282145#3 24149293 22928749#2 22928686#0 22928686#1 278500217#1 278500217#2 278500217#3 278500217#4 278500217#5 278500217#6 283317444#0 -283317444#1 -283317444#2 -283317444#3 9859700#6 9859700#5 151237872#0 151237853#0 151237853#1 283317443#6"/>
    </person>
    <person id="ped19" type="ped_pedestrian" depart="20.04">
        <walk edges="70255226#0 -133858189 -133858466 142575659#0 71028774#1 71028774#0 71028777#4 71028777#2 71028777#1 -558307102#0 -558307102#1 695812741 24733698#1"/>
    </person>
    <person id="ped20" type="ped_pedestrian" depart="21.10">
        <walk edges="414563781 329733354#1 329733354#0 329733357#0 329733357#1 218797686#0 806903753 220194458#3" busStop="1704693444"/> <!-- S Adlershof -->
        <ride busStop="1704693451" lines="61:1" intended="pt_tram_61:1.0" depart="280.00"/> <!-- Walther-Nernst-Straße -->
        <walk edges="670062907#4 683917422#1 683917422#0 -142575701#3"/>
    </person>
    <person id="ped21" type="ped_pedestrian" depart="22.15">
        <walk edges="-38574189#5 -38574189#4 -38574189#3 71960749 -77761492 -54039583#16 -54039583#17 54039583#18 -54039583#19 54039583#20 141968853#2 141968853#1" busStop="837696912"/> <!-- Akeleiweg -->
        <ride busStop="1560223236" lines="160:0" intended="pt_bus_160:0.1" depart="763.00"/>
        <walk edges="143308587#1 143308587#0 143308542#0 143308542#1" busStop="464396487"/>
        <ride busStop="1383533459" lines="164:1" intended="pt_bus_164:1.1" depart="1136.00"/> <!-- Abtstraße -->
        <walk edges="24152326#0 -24152326#1 20553015#1 20553015#0 -20553068#1 -20553068#2 581944408 -581944408"/>
    </person>
    <person id="ped22" type="ped_pedestrian" depart="23.21">
        <walk edges="-147859765#7 -147859765#6 843190009#0 843190014#8 147859765#3 147859765#2 147859765#1 147859766 579026208#0 579026237#1 142575691#2 142575691#1 142575691#0 143308542#7 143308542#6 143308542#4 128643753#0 143308546#10 143308546#11 670062902#2 670062902#3 143308532#0 143308532#2" busStop="671564316"/>
        <ride busStop="-1553912606" lines="160:1" intended="pt_bus_160:1.0" depart="877.00"/> <!-- Akeleiweg -->
        <walk edges="-141968830#1 708546962 52460499#9 52460499#8 52460499#7 52460499#6 52460499#5 52460499#4 52460499#3 52460499#2 52460499#1 52460499#0 22956997#6 -40570987"/>
    </person>
    <person id="ped23" type="ped_pedestrian" depart="24.26">
        <walk edges="-175355252 -53529200#1 -53529200#2 -26444467#9 -53529919#2 53529919#0 22917896#0 207086005 318210360#0" busStop="1383533461"/>
        <ride busStop="-942861696" lines="163:2" intended="pt_bus_163:2.0" depart="522.00"/> <!-- Altglienicker Brücke -->
        <walk edges="-144909690#1 -144909690#2 30978409#0 30978409#1 -24038573#2 -24038573#1 -579048918"/>
    </person>
    <person id="ped24" type="ped_pedestrian" depart="25.32">
        <walk edges="313964778#1 313964778#2 -802021414#6 -802021414#5 -802021414#3 840221739#7 840221739#8 840221732#5 840221732#6 840221730#0 92914038#1 -52081075#7 -52081075#4 142575689#1 24733698#0 24733698#1 579026183#0 579026183#1 143308546#2 81096580#0 81096580#3 143308542#7 142575691#0 142575691#1 142575691#2 114024903#0 114024903#1"/>
    </person>
    <person id="ped25" type="ped_pedestrian" depart="26.37">
        <walk edges="114285344#1 114355960#1 114355960#0 -137483015#0 142575709#1 -314415495#4 -314415495#5 -314415495#6 -314415495#7 314415495#8 314415495#9 314415495#10 314415495#11 314415495#12 314415495#13 314415495#14 314415495#15" busStop="385200819"/> <!-- Albert-Einstein-Straße -->
        <ride busStop="5315085711" lines="260:1" intended="pt_bus_260:1.0" depart="717.00"/> <!-- S Adlershof -->
        <walk edges="806903753 220194458#3 158236381 52080655#0 318210394#0 -334308447#0"/>
    </person>
    <person id="ped26" type="ped_pedestrian" depart="27.43">
        <walk edges="-53529919#2 -40089662#0 -320153863#0 -320153863#4 -40089662#6 204721579#4 204721579#5 204721579#6 153021549#0 153021549#1" busStop="1862990707"/> <!-- Otto-Franke-Straße -->
        <ride busStop="1656195133" lines="163:0" intended="pt_bus_163:0.0" depart="411.00"/> <!-- S Adlershof -->
        <ride busStop="464396566" lines="164:0" intended="pt_bus_164:0.0" depart="595.00"/> <!-- Walther-Nernst-Straße -->
        <walk edges="670062907#2 670062907#3 670062907#4 670062907#5 670062907#6 840221727#8 840221725#1 840221725#0 840221726#0 670062907#9 840221730#4"/>
    </person>
    <person id="ped27" type="ped_pedestrian" depart="28.48">
        <walk edges="320153867 -320153863#4 -40089662#6 204721579#4 204721579#5 204721579#6 153021549#0 153021549#1" busStop="1862990707"/> <!-- Otto-Franke-Straße -->
        <ride busStop="1656195133" lines="163:0" intended="pt_bus_163:0.0" depart="411.00"/> <!-- S Adlershof -->
        <ride busStop="-385200818" lines="260:0" intended="pt_bus_260:0.1" depart="768.00"/> <!-- Albert-Einstein-Straße -->
        <walk edges="-314415495#16 -314415495#15 -314415495#14 -314415495#13 -314415495#12 26991766#17 26991766#16 26991766#15 26991766#14"/>
    </person>
    <person id="ped28" type="ped_pedestrian" depart="29.54">
        <walk edges="-26842370#0 722696525 -691266822#2 -691266822#1 691266822#0 26815091#5 -26815091#4 -26815091#3 26815091#0 26814968#1 26814968#0 190928927#15 190928927#14 190928927#13 190928927#12 190928927#11 190928927#8 190928927#7 408709152 113575152#6 140964910#0 229228933#1 229228933#0 187123437#1 187123437#0 -23913524#2" busStop="-1383533494"/> <!-- Büchnerweg -->
        <ride busStop="464396566" lines="162:2" intended="pt_bus_162:2.1" depart="1381.00"/> <!-- Walther-Nernst-Straße -->
        <walk edges="670062907#2 55939168#1 55939168#0 -558305346 558305344 558305349#1 558305351#1 -558305348#2 840221718#1 840221728#9 840221728#8 840221719#0 180789857#1 180789857#2 180789857#3 180789857#4 647077427#2 647077427#1 647077427#0 647077430#1 647077429#2 647077429#1 647077429#0 312192785 327029707#2 327029707#1 327029707#0 259433182#2 52081093#1"/>
    </person>
    <person id="ped29" type="ped_pedestrian" depart="30.59">
        <walk edges="-26444467#4 -26444467#5 -26444467#6 -26444467#7 -26444467#8 -26444467#9 -40089662#0 -320153863#0 -320153863#4 -40089662#6 204721579#4 204721579#5 204721579#6 153021549#0 153021549#1" busStop="1862990707"/> <!-- Otto-Franke-Straße -->
        <ride busStop="1656195133" lines="163:0" intended="pt_bus_163:0.0" depart="411.00"/> <!-- S Adlershof -->
        <ride busStop="301331956" lines="164:0" intended="pt_bus_164:0.0" depart="595.00"/> <!-- Magnusstraße -->
        <walk edges="143308546#3 143308546#4 312889498 142575692#2 -71028777#2 -71028777#4 142575693#5 142575693#6 142575690#8 122666828#0"/>
    </person>
    <person id="ped30" type="ped_pedestrian" depart="31.64">
        <walk edges="845194194 -334308447#4 -334308447#1 -334308447#0 318210394#0 52080655#0 158236381 220194458#3 806903753" busStop="5315085711"/> <!-- S Adlershof -->
        <ride busStop="1383533461" lines="163:1" intended="pt_bus_163:1.1" depart="689.00"/>
        <walk edges="318210360#0 318210360#1 192204854#0 670062919#4 670062919#3 670062919#2 670062919#1 270282145#3 24149293 22928749#2 22928686#0 22928686#1 278500217#1 278500217#2 278500217#3 278500217#4 278500217#5 278500217#6 283317444#0 283317444#1 283317444#2 317451316#0"/>
    </person>
    <person id="ped31" type="ped_pedestrian" depart="32.70">
        <walk edges="24038584#19 -24038584#18 -24038584#17 -24038584#15 -24038584#14 -24038584#13 -24038584#12 -24038584#11 -24038584#9 -24038584#8 -24038584#7 -24038605#0 -347935096#6 -347935096#7 -221111489 -574527503 -24038573#0 -24038573#1 -24038573#2 30978409#1 30978409#0 144909690#2" busStop="94487938"/> <!-- Altglienicker Brücke -->
        <ride busStop="1656195133" lines="163:0" intended="pt_bus_163:0.1" depart="780.00"/> <!-- S Adlershof -->
        <ride busStop="301331956" lines="164:0" intended="pt_bus_164:0.1" depart="1195.00"/> <!-- Magnusstraße -->
        <walk edges="143308546#3" busStop="1704693381"/> <!-- Magnusstraße -->
        <ride busStop="1704693369" lines="61:1" intended="pt_tram_61:1.1" depart="1721.00"/> <!-- Karl-Ziegler-Straße -->
        <walk edges="397678504#3 397678504#2 397678490#1 397678497#1 397678495#0 397678495#1"/>
    </person>
    <person id="ped32" type="ped_pedestrian" depart="33.75">
        <walk edges="670062907#2 670062907#1 -31050360#2 -318210377#0 -318210378#0 -318210378#4 -318210378#5" busStop="-945142208"/> <!-- Hans-Schmidt-Straße -->
        <ride busStop="-942861696" lines="163:2" intended="pt_bus_163:2.0" depart="218.00"/> <!-- Altglienicker Brücke -->
        <walk edges="-144909690#1 -144909690#2 30978409#0 30978409#1 169076542 -22729318#1 -22729318#0 -152466402#18 578843078#2 578843079 578843078#4 578843078#5 579048881#1"/>
    </person>
    <person id="ped33" type="ped_pedestrian" depart="34.81">
        <walk edges="-38574191 115092088#0 840221708#2 840221708#1 143308521#1 143308521#2 840221713#1 143308521#4 840221714#5 840221713#3 -24791993#6 -24791993#4 -24791993#2 -24791993#1 -24791993#0 -149670384#0 -149670380#1 -70133621#1 -70133621#0 71028774#1 71028774#0 71028777#4 71028777#2 -71028777#1 677923383#0 677923383#1 677933664#7 677933664#5 -142575674#5 -142575674#2 -142575674#1 -142575656#9"/>
    </person>
    <person id="ped34" type="ped_pedestrian" depart="35.86">
        <walk edges="-708544917#0 -708544915 206579058#1 46039050#0 46039050#4 46039050#7 143308542#0 143308542#1 143308542#3 143308542#4 143308542#6" busStop="306982602"/> <!-- Magnusstraße -->
        <ride busStop="464396589" lines="162:3" intended="pt_bus_162:3.0" depart="816.00"/> <!-- Walther-Nernst-Straße -->
        <walk edges="143308542#18 142575707 142575706 -142575708#1 -142575708#4 -142575708#5 142575656#3 131910730#0 843544571#1 -843832580 843189998#6 142598716#3 -142575704#7 142575704#8 142575704#10 142575704#11 142575704#12 142575704#13 142575704#14 142575704#15 843190013#0 843189995#0 -536699314"/>
    </person>
    <person id="ped35" type="ped_pedestrian" depart="36.92">
        <walk edges="-33691719#0 -59461375#0 -59461375#1 -59461375#2 -143308566#2 -143308566#1 -143308566#0 71960633#1 71960633#2 -46150481#0" busStop="-851572693"/>
        <ride busStop="306982602" lines="164:1" intended="pt_bus_164:1.0" depart="434.00"/> <!-- Magnusstraße -->
        <walk edges="143308542#6 81096580#3 81096580#0 143308546#2 579026183#1 579026183#0 24733698#1 24733698#0 142575689#1 -52081075#4 52081075#7 52081075#8 840221732#0 840221732#1 840221732#2 840221738#5 840221738#4"/>
    </person>
    <person id="ped36" type="ped_pedestrian" depart="37.97">
        <walk edges="747488078 -142575661#3 318210373#2 318210373#1 318210373#0 142575672#4 142575672#3 142575672#0 670062912#1 686320806#1 840565785#8 840565785#7 -702305709#0"/>
    </person>
    <person id="ped37" type="ped_pedestrian" depart="39.03">
        <walk edges="328398946 -26843019#1 -26843019#0 -142575688#2 -142575688#3 -142575691#1 -142575691#0 143308542#7 81096580#3 81096580#0 328287366#1 -71028777#1 71028777#2 71028777#4 71028774#0 71028774#1 -70133621#0 -70133621#1 -149670380#1 -149670384#0 -24791993#0 -24791993#1 -24791993#2 -24791993#4 -24791993#6 840221713#3 840221714#5 143308521#4 840221713#1 143308521#2 143308521#1 840221708#1 840221708#2 115092088#0 38574191 -24791996#1 24791996#0 138624421#26"/>
    </person>
    <person id="ped38" type="ped_pedestrian" depart="40.08">
        <walk edges="840221703#0 840221703#1 840221705#4 840221705#5 840221709#0 -142575657#4 -142575657#3 -142575657#1 840221714#2 840221714#1 24791993#6 -24791993#4 -24791993#2 -24791993#1 -24791993#0 -149670384#0 -149670380#1 -70133621#1 -70133621#0 71028774#1 71028774#0 71028777#4 71028777#2 -71028777#1 328287366#1 81096580#0 81096580#3 143308542#7 143308542#8"/>
    </person>
    <person id="ped39" type="ped_pedestrian" depart="41.14">
        <walk edges="-53529476#0 -26444467#3 -26444467#4 -26444467#5 -26444467#6 -26444467#7 -26444467#8 -26444467#9 -40089662#0 -320153863#0 -320153863#4 -40089662#6 204721579#4 204721579#5 204721579#6 153021549#0 153021549#1" busStop="1862990707"/> <!-- Otto-Franke-Straße -->
        <ride busStop="1656195133" lines="163:0" intended="pt_bus_163:0.0" depart="411.00"/> <!-- S Adlershof -->
        <ride busStop="464396566" lines="164:0" intended="pt_bus_164:0.0" depart="595.00"/> <!-- Walther-Nernst-Straße -->
        <walk edges="670062907#2 683917420 55939162#1 55939161#2 55939161#1 55939169#1 55939169#0 143308493#3 25728863#1 126520113#1 840221717#3 840221717#2 840221729#6 840221729#7 840221732#1 840221732#2 840221738#5 802021414#3 802021414#5 802021414#6 -45875459#5"/>
    </person>
    <person id="ped40" type="ped_pedestrian" depart="42.19">
        <walk edges="24149293 270282145#3 670062919#1 670062919#2 670062919#3 670062919#4 192204854#0 204721579#1 204721579#2 53529919#0 -53529919#2 -26444467#9 -26444467#8 -26444467#7 -26444467#6 -26444467#5 -26444467#4 -53529457#0 -53529255#5"/>
    </person>
    <person id="ped41" type="ped_pedestrian" depart="43.25">
        <walk edges="257131026 -116343628#1 116343628#0 -172014854#1 114949101#1 114024900 -24214694#3 143308590#0 143308532#0 143308532#2" busStop="671564316"/>
        <ride busStop="-1553912606" lines="160:1" intended="pt_bus_160:1.0" depart="877.00"/> <!-- Akeleiweg -->
        <walk edges="-141968830#1 152447118#8 152447118#7 152447118#6 152447118#5 152447118#4 821787243"/>
    </person>
    <person id="ped42" type="ped_pedestrian" depart="44.30">
        <walk edges="138624445#18 138624421#31 -138624421#30 138624421#28 24791996#0 -24791996#1 38574191 115092088#0 840221708#2 840221708#1 143308521#1 143308521#2 840221713#1 143308521#4 840221714#5 840221713#3 -24791993#6 -24791993#4 -24791993#2 -24791993#1 -24791993#0 -149670384#0 -149670380#1 -70133621#1 -70133621#0 71028774#1 71028774#0 71028777#4 71028777#2 -71028777#1 328287366#1 81096580#0 81096580#3 143308542#7 142575691#0 142575691#1 142575691#2 579026237#1 579026208#0 147859766 147859765#1 147859765#2 147859765#3 843190014#8 843190009#0 -147859765#6 -147859765#7 843190012#0 843190016#7 843190016#6 843190016#5 -172013798#5 -172013798#6 38160000 -38159999#10"/>
    </person>
    <person id="ped43" type="ped_pedestrian" depart="45.36">
        <walk edges="94517926#1 22928629 151237878#0 151237878#1 365861042 -22928633#0 -278500217#5 -278500217#4 -278500217#3 -278500217#2 -278500217#1 -22928686#1 -22928686#0 -22928749#2 24149293 270282145#3 670062919#1 670062919#2 670062919#3 670062919#4 192204854#0 204721579#1 204721579#2 53529919#0 -53529919#2 -26444467#9 -53529200#2 -53529200#1 -53529200#0 -26444469#1 175355775 -175355422#1 -175355422#0 175355420#1"/>
    </person>
    <person id="ped44" type="ped_pedestrian" depart="46.41">
        <walk edges="-152466402#18 -22729318#0 -22729318#1 -375685717#0 -375685717#1 -81639678#0 -318210386#2 142575667#0 -578917008 -318210371#4 -142575704#21 -142575704#20 -142575704#19 843189998#14 843189998#13 -142575704#15 -142575704#14 -142575704#13"/>
    </person>
    <person id="ped45" type="ped_pedestrian" depart="47.47">
        <walk edges="-190083610#1 326994261#0 190083618#0 24214694#5 24214694#4 24214694#3 143308587#1 143308587#0 670062902#3 70139065 70138930 -25944603#0 -25944603#1 -25944603#2 -70133621#0 -70133621#1 -70133621#2 30978404#1"/>
    </person>
    <person id="ped46" type="ped_pedestrian" depart="48.52">
        <walk edges="579786648 408709152 113575152#6 113575152#7 113575152#8 113575152#10 113575152#11 113575152#12 113575152#13" busStop="297194207"/>
        <ride busStop="1560223236" lines="164:0" intended="pt_bus_164:0.0" depart="279.00"/>
        <walk edges="143308587#1 143308587#0 143308532#0 -47770433 -47770431#1 142575690#3 142575690#2 142575690#1 142575690#0 142575673#1 142575673#0 142575679#6"/>
    </person>
    <person id="ped47" type="ped_pedestrian" depart="49.58">
        <walk edges="-143308527#5 -143308527#6 24931845#0 24931845#1 24931845#2 24931845#3 81639675#3 81639675#4 318210361#1 318210361#0 314415495#24 314415495#22 314415495#21 314415495#20 314415495#19 314415495#17 314415495#16 314415495#15 314415495#14 314415495#13 314415495#12 314415495#11 314415495#10 314415495#9 314415495#8 314415495#7 -125399001#0 -125399001#1 125399001#2"/>
    </person>
    <person id="ped48" type="ped_pedestrian" depart="50.63">
        <walk edges="92914055#1 397678504#0 397678504#1 397678504#2 840221739#16 397678503#1 142575686#3" busStop="1704693343"/> <!-- Karl-Ziegler-Straße -->
        <ride busStop="583899039" lines="63:0" intended="pt_tram_63:0.0" depart="258.00"/> <!-- S Adlershof -->
        <walk edges="218797686#0 329733357#1 329733357#0 329733354#0 329733354#1 -679901152#1 -45875465 152839428 24152326#0" busStop="1383533459"/> <!-- Abtstraße -->
        <ride busStop="1383533492" lines="164:1" intended="pt_bus_164:1.0" depart="854.00"/> <!-- Büchnerweg -->
        <walk edges="23913524#2 149611514#8 149611514#9 20551905#0"/>
    </person>
    <person id="ped49" type="ped_pedestrian" depart="51.69">
        <walk edges="843190011#0 843190012#0 -147859765#7 -147859765#6 843190009#0 843190014#8 147859765#3 147859765#2 147859765#1 147859766 579026208#0 579026237#1 142575691#2 142575691#1 142575691#0 143308542#7 143308542#6" busStop="306982602"/> <!-- Magnusstraße -->
        <ride busStop="5315085711" lines="164:1" intended="pt_bus_164:1.0" depart="599.00"/> <!-- S Adlershof -->
        <ride busStop="1383533461" lines="163:2" intended="pt_bus_163:2.1" depart="960.00"/>
        <walk edges="318210360#0 318210360#1 336335410#1 670062930#2 -670062930#1 702305701#1"/>
    </person>
    <person id="ped50" type="ped_pedestrian" depart="52.74">
        <walk edges="-135777010#14 -135777010#16 -135777010#17 840221739#24 70130339#1" busStop="2050022025"/> <!-- Hermann-Dorner-Allee -->
        <ride busStop="1383533461" lines="163:2" intended="pt_bus_163:2.1" depart="740.00"/>
        <walk edges="318210360#0 318210360#1 192204854#0 670062919#4 670062919#3 670062919#2 -41320354#1 -41320354#0 -487193788 487193789#1"/>
    </person>
    <person id="ped51" type="ped_pedestrian" depart="53.80">