<?xml version="1.0" encoding="UTF-8"?>
<!-- generated on 2022-04-28 09:05:00.398185 by generateParkingAreaRerouters.py v1_12_0+2341-486b0e4e4ae
<configuration>
    <max-distance-alternatives value="4000.0"/>
    <opposite-visible value="True"/>
    <output value="rerouter.add.xml"/>
    <parking-areas value="parking.add.xml"/>
    <sumo-net value="osm.net.xml"/>
</configuration>

-->
<additional xmlns:xsi="http://www.w3.org/2001/XMLSchema-instance" xsi:noNamespaceSchemaLocation="http://sumo.dlr.de/xsd/additional_file.xsd">

    <rerouter id="pa-1013117571#1" edges="-1013117571#1">
        <interval begin="0.0" end="86400">
            <!-- in order of distance --> 
            <parkingAreaReroute id="pa-1013117571#1" visible="true"/> <!-- dist: 0.0 -->
            <parkingAreaReroute id="pa11279544#0" visible="false"/> <!-- dist: 286.2 -->
            <parkingAreaReroute id="pa216169546#0" visible="false"/> <!-- dist: 322.9 -->
            <parkingAreaReroute id="pa72230301#0" visible="true"/> <!-- dist: 328.8 -->
            <parkingAreaReroute id="pa348583833#0" visible="false"/> <!-- dist: 374.1 -->
            <parkingAreaReroute id="pa204721580#0" visible="true"/> <!-- dist: 875.4 -->
            <parkingAreaReroute id="pa745656019#0" visible="false"/> <!-- dist: 955.5 -->
            <parkingAreaReroute id="pa431573403" visible="false"/> <!-- dist: 977.5 -->
            <parkingAreaReroute id="pa194895343#0" visible="false"/> <!-- dist: 987.2 -->
            <parkingAreaReroute id="pa431573404#0" visible="false"/> <!-- dist: 1013.3 -->
            <parkingAreaReroute id="pa-170149081#1" visible="true"/> <!-- dist: 1191.1 -->
        </interval>
    </rerouter>

    <rerouter id="pa-129519181#1" edges="-129519181#1 192530508#0">
        <interval begin="0.0" end="86400">
            <!-- in order of distance --> 
            <parkingAreaReroute id="pa-129519181#1" visible="true"/> <!-- dist: 0.0 -->
            <parkingAreaReroute id="pa10860201#0" visible="false"/> <!-- dist: 718.1 -->
            <parkingAreaReroute id="pa194895343#0" visible="false"/> <!-- dist: 749.8 -->
            <parkingAreaReroute id="pa25368898#0" visible="true"/> <!-- dist: 1045.5 -->
            <parkingAreaReroute id="pa-33234956#1" visible="false"/> <!-- dist: 1156.4 -->
            <parkingAreaReroute id="pa33234956#0" visible="false"/> <!-- dist: 1267.3 -->
            <parkingAreaReroute id="pa145586622#0" visible="false"/> <!-- dist: 1299.1 -->
            <parkingAreaReroute id="pa194896804#0" visible="true"/> <!-- dist: 1300.4 -->
            <parkingAreaReroute id="pa431573407#0" visible="false"/> <!-- dist: 1341.3 -->
            <parkingAreaReroute id="pa541676222" visible="false"/> <!-- dist: 1361.8 -->
            <parkingAreaReroute id="pa-25368898#9" visible="true"/> <!-- dist: 1373.0 -->
        </interval>
    </rerouter>

    <rerouter id="pa-141968830#1" edges="-141968830#1 407167843#0">
        <interval begin="0.0" end="86400">
            <!-- in order of distance --> 
            <parkingAreaReroute id="pa-141968830#1" visible="true"/> <!-- dist: 0.0 -->
            <parkingAreaReroute id="pa-746625193#2" visible="false"/> <!-- dist: 1038.5 -->
            <parkingAreaReroute id="pa81414476#0" visible="false"/> <!-- dist: 1097.7 -->
            <parkingAreaReroute id="pa872231978" visible="false"/> <!-- dist: 1147.5 -->
            <parkingAreaReroute id="pa53385386#0" visible="true"/> <!-- dist: 1199.8 -->
            <parkingAreaReroute id="pa206579071" visible="false"/> <!-- dist: 1207.4 -->
            <parkingAreaReroute id="pa318210393#0" visible="false"/> <!-- dist: 1234.6 -->
            <parkingAreaReroute id="pa22917228#0" visible="false"/> <!-- dist: 1263.7 -->
            <parkingAreaReroute id="pa26547179" visible="false"/> <!-- dist: 1324.4 -->
            <parkingAreaReroute id="pa-54039620#2" visible="false"/> <!-- dist: 1352.3 -->
            <parkingAreaReroute id="pa206579070" visible="false"/> <!-- dist: 1419.3 -->
        </interval>
    </rerouter>

    <rerouter id="pa-145009991#3" edges="-145009991#3 -170149081#1">
        <interval begin="0.0" end="86400">
            <!-- in order of distance --> 
            <parkingAreaReroute id="pa-145009991#3" visible="true"/> <!-- dist: 0.0 -->
            <parkingAreaReroute id="pa216169544#0" visible="false"/> <!-- dist: 906.1 -->
            <parkingAreaReroute id="pa348583833#0" visible="false"/> <!-- dist: 994.0 -->
            <parkingAreaReroute id="pa145009985#0" visible="false"/> <!-- dist: 1030.5 -->
            <parkingAreaReroute id="pa11279544#0" visible="false"/> <!-- dist: 1152.3 -->
            <parkingAreaReroute id="pa216169546#0" visible="false"/> <!-- dist: 1189.0 -->
            <parkingAreaReroute id="pa72230301#0" visible="false"/> <!-- dist: 1195.0 -->
            <parkingAreaReroute id="pa204721580#0" visible="true"/> <!-- dist: 1495.2 -->
            <parkingAreaReroute id="pa745656019#0" visible="false"/> <!-- dist: 1575.4 -->
            <parkingAreaReroute id="pa431573403" visible="false"/> <!-- dist: 1597.4 -->
            <parkingAreaReroute id="pa194895343#0" visible="false"/> <!-- dist: 1607.1 -->
        </interval>
    </rerouter>

    <rerouter id="pa-145586617#31" edges="-145586617#31">
        <interval begin="0.0" end="86400">
            <!-- in order of distance --> 
            <parkingAreaReroute id="pa-145586617#31" visible="true"/> <!-- dist: 0.0 -->
            <parkingAreaReroute id="pa145586617#0" visible="true"/> <!-- dist: 3133.0 -->
            <parkingAreaReroute id="pa22721677#4" visible="false"/> <!-- dist: 3299.5 -->
            <parkingAreaReroute id="pa862741106" visible="false"/> <!-- dist: 3329.1 -->
            <parkingAreaReroute id="pa25944425#0" visible="false"/> <!-- dist: 3389.1 -->
            <parkingAreaReroute id="pa26547172#0" visible="false"/> <!-- dist: 3415.6 -->
            <parkingAreaReroute id="pa22917233#0" visible="false"/> <!-- dist: 3561.2 -->
            <parkingAreaReroute id="pa206579073" visible="false"/> <!-- dist: 3611.5 -->
            <parkingAreaReroute id="pa81414476#0" visible="false"/> <!-- dist: 3670.7 -->
            <parkingAreaReroute id="pa872231978" visible="false"/> <!-- dist: 3720.5 -->
            <parkingAreaReroute id="pa53385386#0" visible="true"/> <!-- dist: 3772.8 -->
        </interval>
    </rerouter>

    <rerouter id="pa-170149081#1" edges="-170149081#1">
        <interval begin="0.0" end="86400">
            <!-- in order of distance --> 
            <parkingAreaReroute id="pa-170149081#1" visible="true"/> <!-- dist: 0.0 -->
            <parkingAreaReroute id="pa-145009991#3" visible="true"/> <!-- dist: 1736.4 -->
            <parkingAreaReroute id="pa216169544#0" visible="false"/> <!-- dist: 1774.3 -->
            <parkingAreaReroute id="pa348583833#0" visible="false"/> <!-- dist: 1862.2 -->
            <parkingAreaReroute id="pa145009985#0" visible="false"/> <!-- dist: 1898.8 -->
            <parkingAreaReroute id="pa11279544#0" visible="false"/> <!-- dist: 2020.5 -->
            <parkingAreaReroute id="pa216169546#0" visible="false"/> <!-- dist: 2057.2 -->
            <parkingAreaReroute id="pa72230301#0" visible="false"/> <!-- dist: 2063.2 -->
            <parkingAreaReroute id="pa204721580#0" visible="true"/> <!-- dist: 2363.5 -->
            <parkingAreaReroute id="pa745656019#0" visible="false"/> <!-- dist: 2443.6 -->
            <parkingAreaReroute id="pa431573403" visible="false"/> <!-- dist: 2465.6 -->
        </interval>
    </rerouter>

    <rerouter id="pa-206579065" edges="-206579065 206579065">
        <interval begin="0.0" end="86400">
            <!-- in order of distance --> 
            <parkingAreaReroute id="pa-206579065" visible="true"/> <!-- dist: 0.0 -->
            <parkingAreaReroute id="pa-53087792#10" visible="false"/> <!-- dist: 414.6 -->
            <parkingAreaReroute id="pa11279858#0" visible="false"/> <!-- dist: 530.9 -->
            <parkingAreaReroute id="pa11279895#0" visible="false"/> <!-- dist: 826.2 -->
            <parkingAreaReroute id="pa206579066#0" visible="false"/> <!-- dist: 878.1 -->
            <parkingAreaReroute id="pa-54039620#2" visible="false"/> <!-- dist: 944.7 -->
            <parkingAreaReroute id="pa206579070" visible="false"/> <!-- dist: 1011.8 -->
            <parkingAreaReroute id="pa54039595#0" visible="false"/> <!-- dist: 1058.9 -->
            <parkingAreaReroute id="pa206579067" visible="false"/> <!-- dist: 1120.8 -->
            <parkingAreaReroute id="pa81414476#0" visible="false"/> <!-- dist: 1180.0 -->
            <parkingAreaReroute id="pa-339558638#6" visible="false"/> <!-- dist: 1199.1 -->
        </interval>
    </rerouter>

    <rerouter id="pa-206579070" edges="-206579070">
        <interval begin="0.0" end="86400">
            <!-- in order of distance --> 
            <parkingAreaReroute id="pa-206579070" visible="true"/> <!-- dist: 0.0 -->
            <parkingAreaReroute id="pa54039620#0" visible="true"/> <!-- dist: 133.6 -->
            <parkingAreaReroute id="pa-54039620#2" visible="true"/> <!-- dist: 200.2 -->
            <parkingAreaReroute id="pa206579070" visible="true"/> <!-- dist: 267.3 -->
            <parkingAreaReroute id="pa54039595#0" visible="false"/> <!-- dist: 314.5 -->
            <parkingAreaReroute id="pa206579067" visible="false"/> <!-- dist: 376.3 -->
            <parkingAreaReroute id="pa81414476#0" visible="false"/> <!-- dist: 435.5 -->
            <parkingAreaReroute id="pa-339558638#6" visible="false"/> <!-- dist: 454.6 -->
            <parkingAreaReroute id="pa872231978" visible="false"/> <!-- dist: 485.3 -->
            <parkingAreaReroute id="pa53385386#0" visible="true"/> <!-- dist: 537.6 -->
            <parkingAreaReroute id="pa206579071" visible="false"/> <!-- dist: 545.2 -->
        </interval>
    </rerouter>

    <rerouter id="pa-25368898#9" edges="-25368898#9">
        <interval begin="0.0" end="86400">
            <!-- in order of distance --> 
            <parkingAreaReroute id="pa-25368898#9" visible="true"/> <!-- dist: 0.0 -->
            <parkingAreaReroute id="pa194895343#0" visible="false"/> <!-- dist: 359.1 -->
            <parkingAreaReroute id="pa25368898#0" visible="true"/> <!-- dist: 654.8 -->
            <parkingAreaReroute id="pa-33234956#1" visible="false"/> <!-- dist: 765.7 -->
            <parkingAreaReroute id="pa33234956#0" visible="false"/> <!-- dist: 876.5 -->
            <parkingAreaReroute id="pa145586622#0" visible="false"/> <!-- dist: 908.4 -->
            <parkingAreaReroute id="pa194896804#0" visible="true"/> <!-- dist: 909.7 -->
            <parkingAreaReroute id="pa431573407#0" visible="false"/> <!-- dist: 950.6 -->
            <parkingAreaReroute id="pa541676222" visible="false"/> <!-- dist: 971.1 -->
            <parkingAreaReroute id="pa216169546#0" visible="false"/> <!-- dist: 1007.8 -->
            <parkingAreaReroute id="pa192530508#0" visible="true"/> <!-- dist: 1043.7 -->
        </interval>
    </rerouter>

    <rerouter id="pa-33234937#10" edges="-33234937#10 33234937#0">
        <interval begin="0.0" end="86400">
            <!-- in order of distance --> 
            <parkingAreaReroute id="pa-33234937#10" visible="true"/> <!-- dist: 0.0 -->
            <parkingAreaReroute id="pa-33234956#1" visible="false"/> <!-- dist: 817.7 -->
            <parkingAreaReroute id="pa33234956#0" visible="false"/> <!-- dist: 928.6 -->
            <parkingAreaReroute id="pa145586622#0" visible="false"/> <!-- dist: 960.4 -->
            <parkingAreaReroute id="pa431573407#0" visible="false"/> <!-- dist: 1002.7 -->
            <parkingAreaReroute id="pa-25368898#9" visible="true"/> <!-- dist: 1034.3 -->
            <parkingAreaReroute id="pa194895343#0" visible="false"/> <!-- dist: 1066.0 -->
            <parkingAreaReroute id="pa266227880#0" visible="false"/> <!-- dist: 1191.9 -->
            <parkingAreaReroute id="pa431573406#0" visible="false"/> <!-- dist: 1287.6 -->
            <parkingAreaReroute id="pa25368898#0" visible="true"/> <!-- dist: 1361.7 -->
            <parkingAreaReroute id="pa1003191667#1" visible="true"/> <!-- dist: 1473.7 -->
        </interval>
    </rerouter>

    <rerouter id="pa-33234956#1" edges="-33234956#1">
        <interval begin="0.0" end="86400">
            <!-- in order of distance --> 
            <parkingAreaReroute id="pa-33234956#1" visible="true"/> <!-- dist: 0.0 -->
            <parkingAreaReroute id="pa33234956#0" visible="true"/> <!-- dist: 221.7 -->
            <parkingAreaReroute id="pa145586622#0" visible="false"/> <!-- dist: 253.6 -->
            <parkingAreaReroute id="pa431573407#0" visible="false"/> <!-- dist: 295.8 -->
            <parkingAreaReroute id="pa266227880#0" visible="false"/> <!-- dist: 485.0 -->
            <parkingAreaReroute id="pa-25368898#9" visible="true"/> <!-- dist: 549.1 -->
            <parkingAreaReroute id="pa431573406#0" visible="false"/> <!-- dist: 580.7 -->
            <parkingAreaReroute id="pa194895343#0" visible="false"/> <!-- dist: 580.8 -->
            <parkingAreaReroute id="pa1003191667#1" visible="true"/> <!-- dist: 766.8 -->
            <parkingAreaReroute id="pa97206934#0" visible="false"/> <!-- dist: 788.1 -->
            <parkingAreaReroute id="pa25368898#0" visible="true"/> <!-- dist: 876.5 -->
        </interval>
    </rerouter>

    <rerouter id="pa-339558638#6" edges="-339558638#6 339558638#0">
        <interval begin="0.0" end="86400">
            <!-- in order of distance --> 
            <parkingAreaReroute id="pa-339558638#6" visible="true"/> <!-- dist: 0.0 -->
            <parkingAreaReroute id="pa-33234956#1" visible="false"/> <!-- dist: 1005.1 -->
            <parkingAreaReroute id="pa33234956#0" visible="false"/> <!-- dist: 1115.9 -->
            <parkingAreaReroute id="pa145586622#0" visible="false"/> <!-- dist: 1147.8 -->
            <parkingAreaReroute id="pa431573407#0" visible="false"/> <!-- dist: 1190.0 -->
            <parkingAreaReroute id="pa-25368898#9" visible="true"/> <!-- dist: 1221.6 -->
            <parkingAreaReroute id="pa194895343#0" visible="false"/> <!-- dist: 1253.3 -->
            <parkingAreaReroute id="pa266227880#0" visible="false"/> <!-- dist: 1379.3 -->
            <parkingAreaReroute id="pa431573406#0" visible="false"/> <!-- dist: 1474.9 -->
            <parkingAreaReroute id="pa25368898#0" visible="true"/> <!-- dist: 1549.0 -->
            <parkingAreaReroute id="pa1003191667#1" visible="true"/> <!-- dist: 1661.0 -->
        </interval>
    </rerouter>

    <rerouter id="pa-53087792#10" edges="-53087792#10">
        <interval begin="0.0" end="86400">
            <!-- in order of distance --> 
            <parkingAreaReroute id="pa-53087792#10" visible="true"/> <!-- dist: 0.0 -->
            <parkingAreaReroute id="pa11279858#0" visible="false"/> <!-- dist: 527.9 -->
            <parkingAreaReroute id="pa11279895#0" visible="true"/> <!-- dist: 823.2 -->
            <parkingAreaReroute id="pa206579066#0" visible="false"/> <!-- dist: 875.1 -->
            <parkingAreaReroute id="pa-54039620#2" visible="false"/> <!-- dist: 941.7 -->
            <parkingAreaReroute id="pa206579070" visible="false"/> <!-- dist: 1008.8 -->
            <parkingAreaReroute id="pa54039595#0" visible="false"/> <!-- dist: 1056.0 -->
            <parkingAreaReroute id="pa206579067" visible="false"/> <!-- dist: 1117.8 -->
            <parkingAreaReroute id="pa81414476#0" visible="false"/> <!-- dist: 1177.0 -->
            <parkingAreaReroute id="pa-339558638#6" visible="false"/> <!-- dist: 1196.1 -->
            <parkingAreaReroute id="pa-129519181#1" visible="true"/> <!-- dist: 1212.5 -->
        </interval>
    </rerouter>

    <rerouter id="pa-54039620#2" edges="-54039620#2 54039620#0">
        <interval begin="0.0" end="86400">
            <!-- in order of distance --> 
            <parkingAreaReroute id="pa-54039620#2" visible="true"/> <!-- dist: 0.0 -->
            <parkingAreaReroute id="pa206579070" visible="true"/> <!-- dist: 133.6 -->
            <parkingAreaReroute id="pa-339558638#6" visible="false"/> <!-- dist: 321.0 -->
            <parkingAreaReroute id="pa-33234956#1" visible="false"/> <!-- dist: 1138.7 -->
            <parkingAreaReroute id="pa33234956#0" visible="false"/> <!-- dist: 1249.6 -->
            <parkingAreaReroute id="pa145586622#0" visible="false"/> <!-- dist: 1281.4 -->
            <parkingAreaReroute id="pa431573407#0" visible="false"/> <!-- dist: 1323.6 -->
            <parkingAreaReroute id="pa-25368898#9" visible="true"/> <!-- dist: 1355.3 -->
            <parkingAreaReroute id="pa194895343#0" visible="false"/> <!-- dist: 1387.0 -->
            <parkingAreaReroute id="pa266227880#0" visible="false"/> <!-- dist: 1512.9 -->
            <parkingAreaReroute id="pa431573406#0" visible="false"/> <!-- dist: 1608.6 -->
        </interval>
    </rerouter>

    <rerouter id="pa-746625193#2" edges="-746625193#2">
        <interval begin="0.0" end="86400">
            <!-- in order of distance --> 
            <parkingAreaReroute id="pa-746625193#2" visible="true"/> <!-- dist: 0.0 -->
            <parkingAreaReroute id="pa81414476#0" visible="true"/> <!-- dist: 168.2 -->
            <parkingAreaReroute id="pa872231978" visible="true"/> <!-- dist: 218.0 -->
            <parkingAreaReroute id="pa53385386#0" visible="true"/> <!-- dist: 270.3 -->
            <parkingAreaReroute id="pa206579071" visible="false"/> <!-- dist: 277.9 -->
            <parkingAreaReroute id="pa318210393#0" visible="false"/> <!-- dist: 305.0 -->
            <parkingAreaReroute id="pa22917228#0" visible="false"/> <!-- dist: 334.1 -->
            <parkingAreaReroute id="pa26547179" visible="false"/> <!-- dist: 394.9 -->
            <parkingAreaReroute id="pa-54039620#2" visible="false"/> <!-- dist: 422.7 -->
            <parkingAreaReroute id="pa206579070" visible="false"/> <!-- dist: 489.8 -->
            <parkingAreaReroute id="pa54039595#0" visible="false"/> <!-- dist: 537.0 -->
        </interval>
    </rerouter>

    <rerouter id="pa-81535329#13" edges="-81535329#13">
        <interval begin="0.0" end="86400">
            <!-- in order of distance --> 
            <parkingAreaReroute id="pa-81535329#13" visible="true"/> <!-- dist: 0.0 -->
            <parkingAreaReroute id="pa25368900#0" visible="true"/> <!-- dist: 2676.6 -->
            <parkingAreaReroute id="pa194895343#0" visible="false"/> <!-- dist: 2708.3 -->
            <parkingAreaReroute id="pa25368898#0" visible="true"/> <!-- dist: 3004.0 -->
            <parkingAreaReroute id="pa-33234956#1" visible="false"/> <!-- dist: 3114.9 -->
            <parkingAreaReroute id="pa33234956#0" visible="false"/> <!-- dist: 3225.8 -->
            <parkingAreaReroute id="pa145586622#0" visible="false"/> <!-- dist: 3257.6 -->
            <parkingAreaReroute id="pa194896804#0" visible="true"/> <!-- dist: 3258.9 -->
            <parkingAreaReroute id="pa431573407#0" visible="false"/> <!-- dist: 3299.8 -->
            <parkingAreaReroute id="pa541676222" visible="false"/> <!-- dist: 3320.3 -->
            <parkingAreaReroute id="pa-25368898#9" visible="true"/> <!-- dist: 3331.5 -->
        </interval>
    </rerouter>

    <rerouter id="pa1003191656#0" edges="1003191656#0">
        <interval begin="0.0" end="86400">
            <!-- in order of distance --> 
            <parkingAreaReroute id="pa1003191656#0" visible="true"/> <!-- dist: 0.0 -->
            <parkingAreaReroute id="pa431573405#0" visible="false"/> <!-- dist: 463.8 -->
            <parkingAreaReroute id="pa266227880#0" visible="false"/> <!-- dist: 653.1 -->
            <parkingAreaReroute id="pa431573406#0" visible="false"/> <!-- dist: 748.7 -->
            <parkingAreaReroute id="pa33234956#0" visible="false"/> <!-- dist: 763.9 -->
            <parkingAreaReroute id="pa145586622#0" visible="false"/> <!-- dist: 795.8 -->
            <parkingAreaReroute id="pa431573407#0" visible="false"/> <!-- dist: 838.0 -->
            <parkingAreaReroute id="pa-33234956#1" visible="false"/> <!-- dist: 874.8 -->
            <parkingAreaReroute id="pa1003191667#1" visible="true"/> <!-- dist: 934.8 -->
            <parkingAreaReroute id="pa97206934#0" visible="false"/> <!-- dist: 956.2 -->
            <parkingAreaReroute id="pa472236111#0" visible="false"/> <!-- dist: 1086.0 -->
        </interval>
    </rerouter>

    <rerouter id="pa1003191667#1" edges="1003191667#1">
        <interval begin="0.0" end="86400">
            <!-- in order of distance --> 
            <parkingAreaReroute id="pa1003191667#1" visible="true"/> <!-- dist: 0.0 -->
            <parkingAreaReroute id="pa1003191656#0" visible="true"/> <!-- dist: 881.6 -->
            <parkingAreaReroute id="pa431573405#0" visible="false"/> <!-- dist: 934.8 -->
            <parkingAreaReroute id="pa266227880#0" visible="false"/> <!-- dist: 1124.1 -->
            <parkingAreaReroute id="pa431573406#0" visible="false"/> <!-- dist: 1219.7 -->
            <parkingAreaReroute id="pa33234956#0" visible="false"/> <!-- dist: 1235.0 -->
            <parkingAreaReroute id="pa145586622#0" visible="false"/> <!-- dist: 1266.8 -->
            <parkingAreaReroute id="pa431573407#0" visible="false"/> <!-- dist: 1309.0 -->
            <parkingAreaReroute id="pa-33234956#1" visible="false"/> <!-- dist: 1345.8 -->
            <parkingAreaReroute id="pa97206934#0" visible="false"/> <!-- dist: 1427.2 -->
            <parkingAreaReroute id="pa472236111#0" visible="false"/> <!-- dist: 1557.0 -->
        </interval>
    </rerouter>

    <rerouter id="pa10860201#0" edges="10860201#0">
        <interval begin="0.0" end="86400">
            <!-- in order of distance --> 
            <parkingAreaReroute id="pa10860201#0" visible="true"/> <!-- dist: 0.0 -->
            <parkingAreaReroute id="pa194895343#0" visible="true"/> <!-- dist: 65.3 -->
            <parkingAreaReroute id="pa25368898#0" visible="true"/> <!-- dist: 361.0 -->
            <parkingAreaReroute id="pa-33234956#1" visible="false"/> <!-- dist: 471.9 -->
            <parkingAreaReroute id="pa33234956#0" visible="false"/> <!-- dist: 582.7 -->
            <parkingAreaReroute id="pa145586622#0" visible="false"/> <!-- dist: 614.5 -->
            <parkingAreaReroute id="pa194896804#0" visible="true"/> <!-- dist: 615.8 -->
            <parkingAreaReroute id="pa431573407#0" visible="false"/> <!-- dist: 656.8 -->
            <parkingAreaReroute id="pa541676222" visible="false"/> <!-- dist: 677.3 -->
            <parkingAreaReroute id="pa-25368898#9" visible="true"/> <!-- dist: 688.4 -->
            <parkingAreaReroute id="pa216169546#0" visible="false"/> <!-- dist: 714.0 -->
        </interval>
    </rerouter>

    <rerouter id="pa11279544#0" edges="11279544#0 145009985#0">
        <interval begin="0.0" end="86400">
            <!-- in order of distance --> 
            <parkingAreaReroute id="pa11279544#0" visible="true"/> <!-- dist: 0.0 -->
            <parkingAreaReroute id="pa216169546#0" visible="true"/> <!-- dist: 158.5 -->
            <parkingAreaReroute id="pa348583833#0" visible="true"/> <!-- dist: 209.7 -->
            <parkingAreaReroute id="pa204721580#0" visible="true"/> <!-- dist: 711.0 -->
            <parkingAreaReroute id="pa745656019#0" visible="false"/> <!-- dist: 791.1 -->
            <parkingAreaReroute id="pa431573403" visible="false"/> <!-- dist: 813.1 -->
            <parkingAreaReroute id="pa194895343#0" visible="false"/> <!-- dist: 822.8 -->
            <parkingAreaReroute id="pa431573404#0" visible="false"/> <!-- dist: 848.9 -->
            <parkingAreaReroute id="pa-170149081#1" visible="true"/> <!-- dist: 1026.7 -->
            <parkingAreaReroute id="pa266227880#0" visible="false"/> <!-- dist: 1038.2 -->
            <parkingAreaReroute id="pa25368898#0" visible="true"/> <!-- dist: 1118.5 -->
        </interval>
    </rerouter>

    <rerouter id="pa11279822#0" edges="11279822#0">
        <interval begin="0.0" end="86400">
            <!-- in order of distance --> 
            <parkingAreaReroute id="pa11279822#0" visible="true"/> <!-- dist: 0.0 -->
            <parkingAreaReroute id="pa11279858#0" visible="true"/> <!-- dist: 246.5 -->
            <parkingAreaReroute id="pa11279895#0" visible="false"/> <!-- dist: 541.8 -->
            <parkingAreaReroute id="pa206579066#0" visible="false"/> <!-- dist: 593.7 -->
            <parkingAreaReroute id="pa-54039620#2" visible="false"/> <!-- dist: 660.3 -->
            <parkingAreaReroute id="pa206579070" visible="false"/> <!-- dist: 727.3 -->
            <parkingAreaReroute id="pa54039595#0" visible="false"/> <!-- dist: 774.5 -->
            <parkingAreaReroute id="pa206579067" visible="false"/> <!-- dist: 836.4 -->
            <parkingAreaReroute id="pa81414476#0" visible="false"/> <!-- dist: 895.6 -->
            <parkingAreaReroute id="pa-339558638#6" visible="false"/> <!-- dist: 914.7 -->
            <parkingAreaReroute id="pa-129519181#1" visible="true"/> <!-- dist: 931.0 -->
        </interval>
    </rerouter>

    <rerouter id="pa11279858#0" edges="11279858#0 11279822#0">
        <interval begin="0.0" end="86400">
            <!-- in order of distance --> 
            <parkingAreaReroute id="pa11279858#0" visible="true"/> <!-- dist: 0.0 -->
            <parkingAreaReroute id="pa-129519181#1" visible="true"/> <!-- dist: 800.9 -->
            <parkingAreaReroute id="pa10860201#0" visible="false"/> <!-- dist: 834.4 -->
            <parkingAreaReroute id="pa194895343#0" visible="false"/> <!-- dist: 866.1 -->
            <parkingAreaReroute id="pa25368898#0" visible="true"/> <!-- dist: 1161.9 -->
            <parkingAreaReroute id="pa-33234956#1" visible="false"/> <!-- dist: 1272.7 -->
            <parkingAreaReroute id="pa33234956#0" visible="false"/> <!-- dist: 1383.6 -->
            <parkingAreaReroute id="pa145586622#0" visible="false"/> <!-- dist: 1415.4 -->
            <parkingAreaReroute id="pa194896804#0" visible="true"/> <!-- dist: 1416.7 -->
            <parkingAreaReroute id="pa431573407#0" visible="false"/> <!-- dist: 1457.6 -->
            <parkingAreaReroute id="pa541676222" visible="false"/> <!-- dist: 1478.1 -->
        </interval>
    </rerouter>

    <rerouter id="pa11279895#0" edges="11279895#0 -53087792#10">
        <interval begin="0.0" end="86400">
            <!-- in order of distance --> 
            <parkingAreaReroute id="pa11279895#0" visible="true"/> <!-- dist: 0.0 -->
            <parkingAreaReroute id="pa206579066#0" visible="false"/> <!-- dist: 463.5 -->
            <parkingAreaReroute id="pa-54039620#2" visible="false"/> <!-- dist: 530.1 -->
            <parkingAreaReroute id="pa206579070" visible="false"/> <!-- dist: 597.2 -->
            <parkingAreaReroute id="pa54039595#0" visible="false"/> <!-- dist: 644.3 -->
            <parkingAreaReroute id="pa206579067" visible="false"/> <!-- dist: 706.2 -->
            <parkingAreaReroute id="pa81414476#0" visible="false"/> <!-- dist: 765.4 -->
            <parkingAreaReroute id="pa-339558638#6" visible="false"/> <!-- dist: 784.5 -->
            <parkingAreaReroute id="pa872231978" visible="false"/> <!-- dist: 815.2 -->
            <parkingAreaReroute id="pa53385386#0" visible="true"/> <!-- dist: 867.5 -->
            <parkingAreaReroute id="pa206579071" visible="false"/> <!-- dist: 875.1 -->
        </interval>
    </rerouter>

    <rerouter id="pa145009985#0" edges="145009985#0">
        <interval begin="0.0" end="86400">
            <!-- in order of distance --> 
            <parkingAreaReroute id="pa145009985#0" visible="true"/> <!-- dist: 0.0 -->
            <parkingAreaReroute id="pa11279544#0" visible="true"/> <!-- dist: 246.3 -->
            <parkingAreaReroute id="pa216169546#0" visible="false"/> <!-- dist: 283.0 -->
            <parkingAreaReroute id="pa72230301#0" visible="false"/> <!-- dist: 288.9 -->
            <parkingAreaReroute id="pa348583833#0" visible="false"/> <!-- dist: 334.2 -->
            <parkingAreaReroute id="pa204721580#0" visible="true"/> <!-- dist: 835.5 -->
            <parkingAreaReroute id="pa745656019#0" visible="false"/> <!-- dist: 915.6 -->
            <parkingAreaReroute id="pa431573403" visible="false"/> <!-- dist: 937.6 -->
            <parkingAreaReroute id="pa194895343#0" visible="false"/> <!-- dist: 947.3 -->
            <parkingAreaReroute id="pa431573404#0" visible="false"/> <!-- dist: 973.4 -->
            <parkingAreaReroute id="pa-170149081#1" visible="true"/> <!-- dist: 1151.2 -->
        </interval>
    </rerouter>

    <rerouter id="pa145586617#0" edges="145586617#0 -145586617#31">
        <interval begin="0.0" end="86400">
            <!-- in order of distance --> 
            <parkingAreaReroute id="pa145586617#0" visible="true"/> <!-- dist: 0.0 -->
            <parkingAreaReroute id="pa22721677#4" visible="false"/> <!-- dist: 1733.0 -->
            <parkingAreaReroute id="pa862741106" visible="false"/> <!-- dist: 1762.6 -->
            <parkingAreaReroute id="pa25944425#0" visible="false"/> <!-- dist: 1822.7 -->
            <parkingAreaReroute id="pa26547172#0" visible="false"/> <!-- dist: 1849.1 -->
            <parkingAreaReroute id="pa22917233#0" visible="false"/> <!-- dist: 1994.7 -->
            <parkingAreaReroute id="pa206579073" visible="false"/> <!-- dist: 2045.0 -->
            <parkingAreaReroute id="pa81414476#0" visible="false"/> <!-- dist: 2104.2 -->
            <parkingAreaReroute id="pa872231978" visible="false"/> <!-- dist: 2154.0 -->