<?xml version="1.0" encoding="UTF-8"?>

<!-- generated on 2023-06-19 14:12:19 by Eclipse SUMO netedit Version v1_16_0+2742-a558fa1bb55
<configuration xmlns:xsi="http://www.w3.org/2001/XMLSchema-instance" xsi:noNamespaceSchemaLocation="http://sumo.dlr.de/xsd/netconvertConfiguration.xsd">

    <input>
        <sumo-net-file value="/Users/hyesopshin/Github/GlasgowLEZ/Tutorials_Self/autobahn/autobahn.net.xml"/>
    </input>

    <output>
        <output-file value="/Users/hyesopshin/Github/GlasgowLEZ/Tutorials_Self/autobahn/autobahn.net.xml"/>
        <output.street-names value="true"/>
    </output>

    <processing>
        <offset.disable-normalization value="true"/>
    </processing>

    <junctions>
        <no-turnarounds value="true"/>
    </junctions>

    <netedit>
        <new-network value="false"/>
    </netedit>

</configuration>
-->

<net version="1.16" junctionCornerDetail="5" limitTurnSpeed="5.50" xmlns:xsi="http://www.w3.org/2001/XMLSchema-instance" xsi:noNamespaceSchemaLocation="http://sumo.dlr.de/xsd/net_file.xsd">

    <location netOffset="0.00,0.00" convBoundary="-0.16,19.97,101.26,91.82" origBoundary="10000000000.00,10000000000.00,-10000000000.00,-10000000000.00" projParameter="!"/>

    <edge id=":J2_0" function="internal">
        <lane id=":J2_0_0" index="0" speed="36.11" length="0.10" shape="6.59,22.79 6.59,22.79"/>
    </edge>
    <edge id=":J3_0" function="internal">
        <lane id=":J3_0_0" index="0" speed="36.11" length="0.10" shape="97.74,87.37 97.74,87.37"/>
    </edge>

    <edge id="E0" from="J0" to="J2" name="entry" priority="-1">
        <lane id="E0_0" index="0" speed="36.11" length="7.13" shape="0.77,18.66 6.59,22.79"/>
    </edge>
    <edge id="E0.118" from="J3" to="J1" name="exit" priority="-1">
        <lane id="E0.118_0" index="0" speed="36.11" length="5.44" shape="97.74,87.37 102.18,90.52"/>
    </edge>
    <edge id="E0.7" from="J2" to="J3" name="longedge" priority="-1">
        <lane id="E0.7_0" index="0" speed="36.11" length="111.72" shape="6.59,22.79 97.74,87.37"/>
    </edge>

    <junction id="J0" type="dead_end" x="-0.16" y="19.97" incLanes="" intLanes="" shape="-0.16,19.97 1.69,17.36"/>
    <junction id="J1" type="dead_end" x="101.26" y="91.82" incLanes="E0.118_0" intLanes="" shape="103.11,89.21 101.26,91.82"/>
    <junction id="J2" type="priority" x="5.66" y="24.09" incLanes="E0_0" intLanes=":J2_0_0" shape="5.66,24.09 7.51,21.48 5.66,24.09">
        <request index="0" response="0" foes="0" cont="0"/>
    </junction>
    <junction id="J3" type="priority" x="96.82" y="88.68" incLanes="E0.7_0" intLanes=":J3_0_0" shape="96.82,88.68 98.67,86.07 96.82,88.68">
        <request index="0" response="0" foes="0" cont="0"/>
    </junction>

    <connection from="E0" to="E0.7" fromLane="0" toLane="0" via=":J2_0_0" dir="s" state="M"/>
    <connection from="E0.7" to="E0.118" fromLane="0" toLane="0" via=":J3_0_0" dir="s" state="M"/>

    <connection from=":J2_0" to="E0.7" fromLane="0" toLane="0" dir="s" state="M"/>
    <connection from=":J3_0" to="E0.118" fromLane="0" toLane="0" dir="s" state="M"/>

</net>
