<configuration>
   <input>
       <net-file value="autobahn.net.xml"/>
       <route-files value="autobahn.rou.xml"/>
   </input>
</configuration>