<?xml version="1.0" encoding="UTF-8"?>
<!-- generated on 2021-09-07 14:48:44.635735 by randomTrips.py v1_10_0+0551-f581c04ba63
  options: -n osm.net.xml <doubleminus>fringe-factor 1 -p 1.223640 -o osm.pedestrian.trips.xml -e 1800 -r osm.pedestrian.rou.xml <doubleminus>vehicle-class pedestrian <doubleminus>persontrips <doubleminus>prefix ped <doubleminus>trip-attributes modes="public" <doubleminus>additional-files osm_stops.add.xml,osm_pt.rou.xml <doubleminus>persontrip.walk-opposite-factor 0.8
-->
<routes xmlns:xsi="http://www.w3.org/2001/XMLSchema-instance" xsi:noNamespaceSchemaLocation="http://sumo.dlr.de/xsd/routes_file.xsd">
    <vType id="ped_pedestrian" vClass="pedestrian"/>
    <person id="ped0" depart="0.00" type="ped_pedestrian">
        <personTrip from="40985809#0" to="-138624445#13" modes="public"/>
    </person>
    <person id="ped1" depart="1.22" type="ped_pedestrian">
        <personTrip from="-630078115" to="-461093303#1" modes="public"/>
    </person>
    <person id="ped2" depart="2.45" type="ped_pedestrian">
        <personTrip from="586124064#1" to="53529255#1" modes="public"/>
    </person>
    <person id="ped3" depart="3.67" type="ped_pedestrian">
        <personTrip from="843189995#4" to="-145586617#1" modes="public"/>
    </person>
    <person id="ped4" depart="4.89" type="ped_pedestrian">
        <personTrip from="142575735#2" to="-138624469#6" modes="public"/>
    </person>
    <person id="ped5" depart="6.12" type="ped_pedestrian">
        <personTrip from="-439105525#0" to="212451899#0" modes="public"/>
    </person>
    <person id="ped6" depart="7.34" type="ped_pedestrian">
        <personTrip from="-138624445#5" to="-38159999#0" modes="public"/>
    </person>
    <person id="ped7" depart="8.57" type="ped_pedestrian">
        <personTrip from="45642428" to="257131028" modes="public"/>
    </person>
    <person id="ped8" depart="9.79" type="ped_pedestrian">
        <personTrip from="-443454551" to="318210389#0" modes="public"/>
    </person>
    <person id="ped9" depart="11.01" type="ped_pedestrian">
        <personTrip from="77761479#1" to="-116343628#2" modes="public"/>
    </person>
    <person id="ped10" depart="12.24" type="ped_pedestrian">
        <personTrip from="761918919" to="55939167#1" modes="public"/>
    </person>
    <person id="ped11" depart="13.46" type="ped_pedestrian">
        <personTrip from="115466410#1" to="-257131023" modes="public"/>
    </person>
    <person id="ped12" depart="14.68" type="ped_pedestrian">
        <personTrip from="887612171#3" to="114692703#2" modes="public"/>
    </person>
    <person id="ped13" depart="15.91" type="ped_pedestrian">
        <personTrip from="-149611511#2" to="-149663200#0" modes="public"/>
    </person>
    <person id="ped14" depart="17.13" type="ped_pedestrian">
        <personTrip from="840221714#0" to="336335410#2" modes="public"/>
    </person>
    <person id="ped15" depart="18.35" type="ped_pedestrian">
        <personTrip from="767962950#0" to="586124023" modes="public"/>
    </person>
    <person id="ped16" depart="19.58" type="ped_pedestrian">
        <personTrip from="24791992" to="887712506#0" modes="public"/>
    </person>
    <person id="ped17" depart="20.80" type="ped_pedestrian">
        <personTrip from="140162609#0" to="259466417#2" modes="public"/>
    </person>
    <person id="ped18" depart="22.03" type="ped_pedestrian">
        <personTrip from="840101793" to="38568632#0" modes="public"/>
    </person>
    <person id="ped19" depart="23.25" type="ped_pedestrian">
        <personTrip from="840221735#1" to="312192838#1" modes="public"/>
    </person>
    <person id="ped20" depart="24.47" type="ped_pedestrian">
        <personTrip from="578659327#4" to="-142575684#4" modes="public"/>
    </person>
    <person id="ped21" depart="25.70" type="ped_pedestrian">
        <personTrip from="-52081075#2" to="-71960516#0" modes="public"/>
    </person>
    <person id="ped22" depart="26.92" type="ped_pedestrian">
        <personTrip from="-143308646#1" to="-53529200#2" modes="public"/>
    </person>
    <person id="ped23" depart="28.14" type="ped_pedestrian">
        <personTrip from="-152709214" to="-679901151" modes="public"/>
    </person>
    <person id="ped24" depart="29.37" type="ped_pedestrian">
        <personTrip from="40191605#0" to="138624421#32" modes="public"/>
    </person>
    <person id="ped25" depart="30.59" type="ped_pedestrian">
        <personTrip from="138624445#3" to="-38574189#7" modes="public"/>
    </person>
    <person id="ped26" depart="31.81" type="ped_pedestrian">
        <personTrip from="-586124064#2" to="883112696#1" modes="public"/>
    </person>
    <person id="ped27" depart="33.04" type="ped_pedestrian">
        <personTrip from="449845657#0" to="357043348" modes="public"/>
    </person>
    <person id="ped28" depart="34.26" type="ped_pedestrian">
        <personTrip from="-302943908#2" to="586124016" modes="public"/>
    </person>
    <person id="ped29" depart="35.49" type="ped_pedestrian">
        <personTrip from="-26444468#1" to="141873658#0" modes="public"/>
    </person>
    <person id="ped30" depart="36.71" type="ped_pedestrian">
        <personTrip from="92914055#2" to="40985813#1" modes="public"/>
    </person>
    <person id="ped31" depart="37.93" type="ped_pedestrian">
        <personTrip from="26444467#3" to="540221753" modes="public"/>
    </person>
    <person id="ped32" depart="39.16" type="ped_pedestrian">
        <personTrip from="840221709#2" to="677933664#4" modes="public"/>
    </person>
    <person id="ped33" depart="40.38" type="ped_pedestrian">
        <personTrip from="-52081093#2" to="-138624497#1" modes="public"/>
    </person>
    <person id="ped34" depart="41.60" type="ped_pedestrian">
        <personTrip from="-845194200" to="-586124068" modes="public"/>
    </person>
    <person id="ped35" depart="42.83" type="ped_pedestrian">
        <personTrip from="-38915289#4" to="886496558#0" modes="public"/>
    </person>
    <person id="ped36" depart="44.05" type="ped_pedestrian">
        <personTrip from="840565793#6" to="-843949729" modes="public"/>
    </person>
    <person id="ped37" depart="45.27" type="ped_pedestrian">
        <personTrip from="46150483#1" to="142575679#5" modes="public"/>
    </person>
    <person id="ped38" depart="46.50" type="ped_pedestrian">
        <personTrip from="843544571#1" to="146738850#0" modes="public"/>
    </person>
    <person id="ped39" depart="47.72" type="ped_pedestrian">
        <personTrip from="-586124055" to="-558307101" modes="public"/>
    </person>
    <person id="ped40" depart="48.95" type="ped_pedestrian">
        <personTrip from="26816590#1" to="-586124044" modes="public"/>
    </person>
    <person id="ped41" depart="50.17" type="ped_pedestrian">
        <personTrip from="314415495#9" to="843190001#0" modes="public"/>
    </person>
    <person id="ped42" depart="51.39" type="ped_pedestrian">
        <personTrip from="142575688#1" to="-443066375#1" modes="public"/>
    </person>
    <person id="ped43" depart="52.62" type="ped_pedestrian">
        <personTrip from="976918148#2" to="212454382#0" modes="public"/>
    </person>
    <person id="ped44" depart="53.84" type="ped_pedestrian">
        <personTrip from="-147859763#4" to="-142575688#10" modes="public"/>
    </person>
    <person id="ped45" depart="55.06" type="ped_pedestrian">
        <personTrip from="-175357041#0" to="38915290#2" modes="public"/>
    </person>
    <person id="ped46" depart="56.29" type="ped_pedestrian">
        <personTrip from="708546962#1" to="142575737#0" modes="public"/>
    </person>
    <person id="ped47" depart="57.51" type="ped_pedestrian">
        <personTrip from="-142575734#3" to="141968830#1" modes="public"/>
    </person>
    <person id="ped48" depart="58.73" type="ped_pedestrian">
        <personTrip from="976735033#1" to="24152603#0" modes="public"/>
    </person>
    <person id="ped49" depart="59.96" type="ped_pedestrian">
        <personTrip from="887712504#3" to="840221733#5" modes="public"/>
    </person>
    <person id="ped50" depart="61.18" type="ped_pedestrian">
        <personTrip from="-134100875" to="581596944" modes="public"/>
    </person>
    <person id="ped51" depart="62.41" type="ped_pedestrian">
        <personTrip from="53529557#2" to="24791993#4" modes="public"/>
    </person>
    <person id="ped52" depart="63.63" type="ped_pedestrian">
        <personTrip from="-586124064#1" to="412814181" modes="public"/>
    </person>
    <person id="ped53" depart="64.85" type="ped_pedestrian">
        <personTrip from="-178028204#1" to="143308527#5" modes="public"/>
    </person>
    <person id="ped54" depart="66.08" type="ped_pedestrian">
        <personTrip from="143482766#2" to="887612168#6" modes="public"/>
    </person>
    <person id="ped55" depart="67.30" type="ped_pedestrian">
        <personTrip from="840565793#3" to="-586124048" modes="public"/>
    </person>
    <person id="ped56" depart="68.52" type="ped_pedestrian">
        <personTrip from="20553068#0" to="-314415495#19" modes="public"/>
    </person>
    <person id="ped57" depart="69.75" type="ped_pedestrian">
        <personTrip from="843190016#16" to="840565783" modes="public"/>
    </person>
    <person id="ped58" depart="70.97" type="ped_pedestrian">
        <personTrip from="-77761476" to="40636828#2" modes="public"/>
    </person>
    <person id="ped59" depart="72.19" type="ped_pedestrian">
        <personTrip from="356766925" to="-24791996#0" modes="public"/>
    </person>
    <person id="ped60" depart="73.42" type="ped_pedestrian">
        <personTrip from="630078181#1" to="257005614#3" modes="public"/>
    </person>
    <person id="ped61" depart="74.64" type="ped_pedestrian">
        <personTrip from="683917422#0" to="24152656#0" modes="public"/>
    </person>
    <person id="ped62" depart="75.87" type="ped_pedestrian">
        <personTrip from="-114024901" to="-918501806" modes="public"/>
    </person>
    <person id="ped63" depart="77.09" type="ped_pedestrian">
        <personTrip from="-138624421#19" to="848515498#0" modes="public"/>
    </person>
    <person id="ped64" depart="78.31" type="ped_pedestrian">
        <personTrip from="840565795#5" to="840101810" modes="public"/>
    </person>
    <person id="ped65" depart="79.54" type="ped_pedestrian">
        <personTrip from="-840101819" to="-142575708#4" modes="public"/>
    </person>
    <person id="ped66" depart="80.76" type="ped_pedestrian">
        <personTrip from="840565794#7" to="887604835#2" modes="public"/>
    </person>
    <person id="ped67" depart="81.98" type="ped_pedestrian">
        <personTrip from="-143482770#1" to="178028204#9" modes="public"/>
    </person>
    <person id="ped68" depart="83.21" type="ped_pedestrian">
        <personTrip from="-143308493#3" to="630078162#8" modes="public"/>
    </person>
    <person id="ped69" depart="84.43" type="ped_pedestrian">
        <personTrip from="647077435" to="-212454162#2" modes="public"/>
    </person>
    <person id="ped70" depart="85.65" type="ped_pedestrian">
        <personTrip from="161788770" to="25944590#0" modes="public"/>
    </person>
    <person id="ped71" depart="86.88" type="ped_pedestrian">
        <personTrip from="-586124056" to="840565787#1" modes="public"/>
    </person>
    <person id="ped72" depart="88.10" type="ped_pedestrian">
        <personTrip from="142575738#0" to="-38915290#2" modes="public"/>
    </person>
    <person id="ped73" depart="89.33" type="ped_pedestrian">
        <personTrip from="257005614#2" to="586124025" modes="public"/>
    </person>
    <person id="ped74" depart="90.55" type="ped_pedestrian">
        <personTrip from="-38507369#0" to="-841976398#1" modes="public"/>
    </person>
    <person id="ped75" depart="91.77" type="ped_pedestrian">
        <personTrip from="976390656#8" to="45642428" modes="public"/>
    </person>
    <person id="ped76" depart="93.00" type="ped_pedestrian">
        <personTrip from="143308546#8" to="23913524#4" modes="public"/>
    </person>
    <person id="ped77" depart="94.22" type="ped_pedestrian">
        <personTrip from="-20553015#1" to="-47765615#1" modes="public"/>
    </person>
    <person id="ped78" depart="95.44" type="ped_pedestrian">
        <personTrip from="115080507" to="318210377#1" modes="public"/>
    </person>
    <person id="ped79" depart="96.67" type="ped_pedestrian">
        <personTrip from="-52460499#2" to="-443454549#3" modes="public"/>
    </person>
    <person id="ped80" depart="97.89" type="ped_pedestrian">
        <personTrip from="-143308521#11" to="397678498#0" modes="public"/>
    </person>
    <person id="ped81" depart="99.11" type="ped_pedestrian">
        <personTrip from="-52081093#2" to="843190011#0" modes="public"/>
    </person>
    <person id="ped82" depart="100.34" type="ped_pedestrian">
        <personTrip from="840221732#6" to="-143308521#1" modes="public"/>
    </person>
    <person id="ped83" depart="101.56" type="ped_pedestrian">
        <personTrip from="-53529509#0" to="52460499#6" modes="public"/>
    </person>
    <person id="ped84" depart="102.79" type="ped_pedestrian">
        <personTrip from="-403442279#1" to="-232757914#1" modes="public"/>
    </person>
    <person id="ped85" depart="104.01" type="ped_pedestrian">
        <personTrip from="87843218" to="30978404#0" modes="public"/>
    </person>
    <person id="ped86" depart="105.23" type="ped_pedestrian">
        <personTrip from="153021549#2" to="69923147" modes="public"/>
    </person>
    <person id="ped87" depart="106.46" type="ped_pedestrian">
        <personTrip from="767962950#2" to="-328288211#1" modes="public"/>
    </person>
    <person id="ped88" depart="107.68" type="ped_pedestrian">
        <personTrip from="-149670370#0" to="143308521#13" modes="public"/>
    </person>
    <person id="ped89" depart="108.90" type="ped_pedestrian">
        <personTrip from="142575739#0" to="149670373#1" modes="public"/>
    </person>
    <person id="ped90" depart="110.13" type="ped_pedestrian">
        <personTrip from="586124016" to="53385408" modes="public"/>
    </person>
    <person id="ped91" depart="111.35" type="ped_pedestrian">
        <personTrip from="887919959#3" to="-149670380#1" modes="public"/>
    </person>
    <person id="ped92" depart="112.57" type="ped_pedestrian">
        <personTrip from="142575690#7" to="115092088#9" modes="public"/>
    </person>
    <person id="ped93" depart="113.80" type="ped_pedestrian">
        <personTrip from="840221734#1" to="-579026242#1" modes="public"/>
    </person>
    <person id="ped94" depart="115.02" type="ped_pedestrian">
        <personTrip from="-328288211#0" to="143308685#1" modes="public"/>
    </person>
    <person id="ped95" depart="116.25" type="ped_pedestrian">
        <personTrip from="142575735#0" to="-683972872" modes="public"/>
    </person>
    <person id="ped96" depart="117.47" type="ped_pedestrian">
        <personTrip from="-579269882#1" to="843832578" modes="public"/>
    </person>
    <person id="ped97" depart="118.69" type="ped_pedestrian">
        <personTrip from="143308608" to="840221734#0" modes="public"/>
    </person>
    <person id="ped98" depart="119.92" type="ped_pedestrian">
        <personTrip from="25944590#3" to="-142575695#1" modes="public"/>
    </person>
    <person id="ped99" depart="121.14" type="ped_pedestrian">
        <personTrip from="977639651#1" to="840221701#1" modes="public"/>
    </person>
    <person id="ped100" depart="122.36" type="ped_pedestrian">
        <personTrip from="887625217#2" to="843832589#1" modes="public"/>
    </person>
    <person id="ped101" depart="123.59" type="ped_pedestrian">
        <personTrip from="840221715#0" to="-26816737#0" modes="public"/>
    </person>
    <person id="ped102" depart="124.81" type="ped_pedestrian">
        <personTrip from="178028204#3" to="-403442277#0" modes="public"/>
    </person>
    <person id="ped103" depart="126.03" type="ped_pedestrian">
        <personTrip from="142575688#9" to="-142575710#1" modes="public"/>
    </person>
    <person id="ped104" depart="127.26" type="ped_pedestrian">
        <personTrip from="140964905#2" to="909538552" modes="public"/>
    </person>
    <person id="ped105" depart="128.48" type="ped_pedestrian">
        <personTrip from="-586124057" to="692620499" modes="public"/>
    </person>
    <person id="ped106" depart="129.71" type="ped_pedestrian">
        <personTrip from="143482779#0" to="142575737#4" modes="public"/>
    </person>
    <person id="ped107" depart="130.93" type="ped_pedestrian">
        <personTrip from="887612171#3" to="976390656#9" modes="public"/>
    </person>
    <person id="ped108" depart="132.15" type="ped_pedestrian">
        <personTrip from="26004966#2" to="581145162" modes="public"/>
    </person>
    <person id="ped109" depart="133.38" type="ped_pedestrian">
        <personTrip from="-257005614#6" to="-762156868" modes="public"/>
    </person>
    <person id="ped110" depart="134.60" type="ped_pedestrian">
        <personTrip from="887625217#1" to="31344737#2" modes="public"/>
    </person>
    <person id="ped111" depart="135.82" type="ped_pedestrian">
        <personTrip from="257072321#4" to="617755665" modes="public"/>
    </person>
    <person id="ped112" depart="137.05" type="ped_pedestrian">
        <personTrip from="-142575704#5" to="314415495#7" modes="public"/>
    </person>
    <person id="ped113" depart="138.27" type="ped_pedestrian">
        <personTrip from="206579064#0" to="840221724#1" modes="public"/>
    </person>
    <person id="ped114" depart="139.49" type="ped_pedestrian">
        <personTrip from="-259433181#2" to="887625212#1" modes="public"/>
    </person>
    <person id="ped115" depart="140.72" type="ped_pedestrian">
        <personTrip from="-143308669" to="-320153867" modes="public"/>
    </person>
    <person id="ped116" depart="141.94" type="ped_pedestrian">
        <personTrip from="32235088#3" to="53529200#3" modes="public"/>
    </person>
    <person id="ped117" depart="143.17" type="ped_pedestrian">
        <personTrip from="-53529255#6" to="-190083625#0" modes="public"/>
    </person>
    <person id="ped118" depart="144.39" type="ped_pedestrian">
        <personTrip from="843189993#1" to="-543699380#1" modes="public"/>
    </person>
    <person id="ped119" depart="145.61" type="ped_pedestrian">
        <personTrip from="32235088#12" to="38568633#1" modes="public"/>
    </person>
    <person id="ped120" depart="146.84" type="ped_pedestrian">
        <personTrip from="142575725#4" to="314415495#4" modes="public"/>
    </person>
    <person id="ped121" depart="148.06" type="ped_pedestrian">
        <personTrip from="24038605#0" to="875752724#0" modes="public"/>
    </person>
    <person id="ped122" depart="149.28" type="ped_pedestrian">
        <personTrip from="-38568633#0" to="579671856#2" modes="public"/>
    </person>
    <person id="ped123" depart="150.51" type="ped_pedestrian">
        <personTrip from="-53529557#2" to="142575679#5" modes="public"/>
    </person>
    <person id="ped124" depart="151.73" type="ped_pedestrian">
        <personTrip from="53021664#1" to="-780225324" modes="public"/>
    </person>
    <person id="ped125" depart="152.96" type="ped_pedestrian">
        <personTrip from="-847897311" to="630078120" modes="public"/>
    </person>
    <person id="ped126" depart="154.18" type="ped_pedestrian">
        <personTrip from="-143308523#1" to="146511461#7" modes="public"/>
    </person>
    <person id="ped127" depart="155.40" type="ped_pedestrian">
        <personTrip from="977374305#0" to="976735032#1" modes="public"/>
    </person>
    <person id="ped128" depart="156.63" type="ped_pedestrian">
        <personTrip from="-143308523#5" to="-40089662#1" modes="public"/>
    </person>
    <person id="ped129" depart="157.85" type="ped_pedestrian">
        <personTrip from="-586124057" to="872238234" modes="public"/>
    </person>
    <person id="ped130" depart="159.07" type="ped_pedestrian">
        <personTrip from="841345130" to="840565795#8" modes="public"/>
    </person>
    <person id="ped131" depart="160.30" type="ped_pedestrian">
        <personTrip from="138624445#16" to="-25944448" modes="public"/>
    </person>
    <person id="ped132" depart="161.52" type="ped_pedestrian">
        <personTrip from="840101823" to="578659323#2" modes="public"/>
    </person>
    <person id="ped133" depart="162.74" type="ped_pedestrian">
        <personTrip from="361138488" to="918501802#0" modes="public"/>
    </person>
    <person id="ped134" depart="163.97" type="ped_pedestrian">
        <personTrip from="461093306#0" to="-122666828#2" modes="public"/>
    </person>
    <person id="ped135" depart="165.19" type="ped_pedestrian">
        <personTrip from="81096582#3" to="-77761496" modes="public"/>
    </person>
    <person id="ped136" depart="166.42" type="ped_pedestrian">
        <personTrip from="52081093#2" to="886496546#2" modes="public"/>
    </person>
    <person id="ped137" depart="167.64" type="ped_pedestrian">
        <personTrip from="-23919022#2" to="-187122892#10" modes="public"/>
    </person>
    <person id="ped138" depart="168.86" type="ped_pedestrian">
        <personTrip from="-172288752#1" to="26004787#0" modes="public"/>
    </person>
    <person id="ped139" depart="170.09" type="ped_pedestrian">
        <personTrip from="-616846343#0" to="336335429#0" modes="public"/>
    </person>
    <person id="ped140" depart="171.31" type="ped_pedestrian">
        <personTrip from="579671869#1" to="-38568632#0" modes="public"/>
    </person>
    <person id="ped141" depart="172.53" type="ped_pedestrian">
        <personTrip from="398770009#2" to="-586124051" modes="public"/>
    </person>
    <person id="ped142" depart="173.76" type="ped_pedestrian">
        <personTrip from="180789857#14" to="843190010#1" modes="public"/>
    </person>
    <person id="ped143" depart="174.98" type="ped_pedestrian">
        <personTrip from="840221713#1" to="-147859765#8" modes="public"/>
    </person>
    <person id="ped144" depart="176.20" type="ped_pedestrian">
        <personTrip from="142575739#0" to="-670062930#5" modes="public"/>
    </person>
    <person id="ped145" depart="177.43" type="ped_pedestrian">
        <personTrip from="-114952399#1" to="668658812#1" modes="public"/>
    </person>
    <person id="ped146" depart="178.65" type="ped_pedestrian">
        <personTrip from="40191607#4" to="-586124040" modes="public"/>
    </person>
    <person id="ped147" depart="179.88" type="ped_pedestrian">
        <personTrip from="590751238" to="259466417#0" modes="public"/>
    </person>
    <person id="ped148" depart="181.10" type="ped_pedestrian">
        <personTrip from="142598716#1" to="-126520112" modes="public"/>
    </person>
    <person id="ped149" depart="182.32" type="ped_pedestrian">
        <personTrip from="-143308562#1" to="841345143#0" modes="public"/>
    </person>
    <person id="ped150" depart="183.55" type="ped_pedestrian">
        <personTrip from="843190007#3" to="25771472" modes="public"/>
    </person>
    <person id="ped151" depart="184.77" type="ped_pedestrian">
        <personTrip from="840221699#1" to="314415495#17" modes="public"/>
    </person>
    <person id="ped152" depart="185.99" type="ped_pedestrian">
        <personTrip from="-245105008#0" to="-212453974#1" modes="public"/>
    </person>
    <person id="ped153" depart="187.22" type="ped_pedestrian">
        <personTrip from="-841219712" to="843190001#14" modes="public"/>
    </person>
    <person id="ped154" depart="188.44" type="ped_pedestrian">
        <personTrip from="71806638" to="840221733#4" modes="public"/>
    </person>
    <person id="ped155" depart="189.66" type="ped_pedestrian">
        <personTrip from="843190001#14" to="-38574190#0" modes="public"/>
    </person>
    <person id="ped156" depart="190.89" type="ped_pedestrian">
        <personTrip from="-579202713" to="-158228538#0" modes="public"/>
    </person>
    <person id="ped157" depart="192.11" type="ped_pedestrian">
        <personTrip from="683972875#3" to="841976393" modes="public"/>
    </person>
    <person id="ped158" depart="193.34" type="ped_pedestrian">
        <personTrip from="142575694#0" to="38568644" modes="public"/>
    </person>
    <person id="ped159" depart="194.56" type="ped_pedestrian">
        <personTrip from="-257005614#5" to="849775802#4" modes="public"/>
    </person>
    <person id="ped160" depart="195.78" type="ped_pedestrian">
        <personTrip from="840221735#9" to="887862705#3" modes="public"/>
    </person>
    <person id="ped161" depart="197.01" type="ped_pedestrian">
        <personTrip from="780225326#0" to="841345134#3" modes="public"/>
    </person>
    <person id="ped162" depart="198.23" type="ped_pedestrian">
        <personTrip from="-138624445#12" to="586124064#1" modes="public"/>
    </person>
    <person id="ped163" depart="199.45" type="ped_pedestrian">
        <personTrip from="114207232#0" to="849775803" modes="public"/>
    </person>
    <person id="ped164" depart="200.68" type="ped_pedestrian">
        <personTrip from="721625613#1" to="840221735#7" modes="public"/>
    </person>
    <person id="ped165" depart="201.90" type="ped_pedestrian">
        <personTrip from="780225326#0" to="-586124064#1" modes="public"/>
    </person>
    <person id="ped166" depart="203.12" type="ped_pedestrian">
        <personTrip from="70214888#0" to="-175355252" modes="public"/>
    </person>
    <person id="ped167" depart="204.35" type="ped_pedestrian">
        <personTrip from="840565785#7" to="840221732#1" modes="public"/>
    </person>
    <person id="ped168" depart="205.57" type="ped_pedestrian">
        <personTrip from="-45875459#4" to="81096582#0" modes="public"/>
    </person>
    <person id="ped169" depart="206.80" type="ped_pedestrian">
        <personTrip from="147859763#4" to="-822215320#0" modes="public"/>
    </person>
    <person id="ped170" depart="208.02" type="ped_pedestrian">
        <personTrip from="71596029#1" to="-52080655#2" modes="public"/>
    </person>
    <person id="ped171" depart="209.24" type="ped_pedestrian">
        <personTrip from="-138624438#5" to="-33690600" modes="public"/>
    </person>
    <person id="ped172" depart="210.47" type="ped_pedestrian">
        <personTrip from="114024903#0" to="840221735#8" modes="public"/>
    </person>
    <person id="ped173" depart="211.69" type="ped_pedestrian">
        <personTrip from="887625216#2" to="-683972875#0" modes="public"/>
    </person>
    <person id="ped174" depart="212.91" type="ped_pedestrian">
        <personTrip from="412814194#0" to="142575688#10" modes="public"/>
    </person>
    <person id="ped175" depart="214.14" type="ped_pedestrian">
        <personTrip from="887910341#9" to="24791992" modes="public"/>
    </person>
    <person id="ped176" depart="215.36" type="ped_pedestrian">
        <personTrip from="886496552#1" to="-187122892#10" modes="public"/>
    </person>
    <person id="ped177" depart="216.58" type="ped_pedestrian">
        <personTrip from="887712504#0" to="-314415495#17" modes="public"/>
    </person>
    <person id="ped178" depart="217.81" type="ped_pedestrian">
        <personTrip from="887625214#12" to="-586124058" modes="public"/>
    </person>
    <person id="ped179" depart="219.03" type="ped_pedestrian">
        <personTrip from="-175355421" to="143308527#4" modes="public"/>
    </person>
    <person id="ped180" depart="220.26" type="ped_pedestrian">
        <personTrip from="586124012" to="-843832585#1" modes="public"/>
    </person>
    <person id="ped181" depart="221.48" type="ped_pedestrian">
        <personTrip from="33691719#1" to="213883654" modes="public"/>
    </person>
    <person id="ped182" depart="222.70" type="ped_pedestrian">
        <personTrip from="142575655#13" to="312192834#1" modes="public"/>
    </person>
    <person id="ped183" depart="223.93" type="ped_pedestrian">
        <personTrip from="-581636333#0" to="579026237#0" modes="public"/>
    </person>
    <person id="ped184" depart="225.15" type="ped_pedestrian">
        <personTrip from="-114207227" to="843832588#0" modes="public"/>
    </person>
    <person id="ped185" depart="226.37" type="ped_pedestrian">
        <personTrip from="24931845#1" to="581596937" modes="public"/>
    </person>
    <person id="ped186" depart="227.60" type="ped_pedestrian">
        <personTrip from="59461375#1" to="527170115#1" modes="public"/>
    </person>
    <person id="ped187" depart="228.82" type="ped_pedestrian">
        <personTrip from="138624421#25" to="-143308505#1" modes="public"/>
    </person>
    <person id="ped188" depart="230.04" type="ped_pedestrian">
        <personTrip from="52081116#13" to="114033009" modes="public"/>
    </person>
    <person id="ped189" depart="231.27" type="ped_pedestrian">
        <personTrip from="-843832586#1" to="840221714#2" modes="public"/>
    </person>
    <person id="ped190" depart="232.49" type="ped_pedestrian">
        <personTrip from="581596939" to="-782084394#0" modes="public"/>
    </person>
    <person id="ped191" depart="233.72" type="ped_pedestrian">
        <personTrip from="-841345129#6" to="142575699#2" modes="public"/>
    </person>
    <person id="ped192" depart="234.94" type="ped_pedestrian">
        <personTrip from="142575690#5" to="-73058506#1" modes="public"/>
    </person>
    <person id="ped193" depart="236.16" type="ped_pedestrian">
        <personTrip from="-212453974#0" to="142575731#1" modes="public"/>
    </person>
    <person id="ped194" depart="237.39" type="ped_pedestrian">
        <personTrip from="886496552#2" to="53529255#4" modes="public"/>
    </person>
    <person id="ped195" depart="238.61" type="ped_pedestrian">
        <personTrip from="843190006#0" to="382647882" modes="public"/>
    </person>
    <person id="ped196" depart="239.83" type="ped_pedestrian">
        <personTrip from="-801469870#1" to="259433182#4" modes="public"/>
    </person>