<?xml version="1.0" encoding="UTF-8"?>

<!-- generated on 2021-09-07 14:48:52 by Eclipse SUMO duarouter Version v1_10_0+0551-f581c04ba63
<configuration xmlns:xsi="http://www.w3.org/2001/XMLSchema-instance" xsi:noNamespaceSchemaLocation="http://sumo.dlr.de/xsd/duarouterConfiguration.xsd">

    <input>
        <net-file value="osm.net.xml"/>
        <route-files value="osm.bicycle.trips.xml"/>
    </input>

    <output>
        <output-file value="osm.bicycle.trips.xml.tmp"/>
        <write-trips value="true"/>
    </output>

    <time>
        <begin value="0"/>
        <end value="1800"/>
    </time>

    <report>
        <no-warnings value="true"/>
        <ignore-errors value="true"/>
        <no-step-log value="true"/>
    </report>

</configuration>
-->

<routes xmlns:xsi="http://www.w3.org/2001/XMLSchema-instance" xsi:noNamespaceSchemaLocation="http://sumo.dlr.de/xsd/routes_file.xsd">
    <vType id="bike_bicycle" vClass="bicycle"/>
    <trip id="bike0" type="bike_bicycle" depart="0.00" departLane="best" from="149611514#7" to="-138624421#21"/>
    <trip id="bike1" type="bike_bicycle" depart="2.28" departLane="best" from="-347935096#2" to="-26991766#14"/>
    <trip id="bike2" type="bike_bicycle" depart="4.56" departLane="best" from="257072321#0" to="283317455#0"/>
    <trip id="bike3" type="bike_bicycle" depart="6.84" departLane="best" from="586124064#1" to="-142575734#1"/>
    <trip id="bike4" type="bike_bicycle" depart="9.12" departLane="best" departSpeed="max" from="-686320801#1" to="-138624438#3"/>
    <trip id="bike5" type="bike_bicycle" depart="11.40" departLane="best" from="-257005614#8" to="143308523#3"/>
    <trip id="bike6" type="bike_bicycle" depart="13.68" departLane="best" from="-138624421#11" to="-245105014#1"/>
    <trip id="bike7" type="bike_bicycle" depart="15.96" departLane="best" from="153021549#2" to="149611514#1"/>
    <trip id="bike8" type="bike_bicycle" depart="18.24" departLane="best" departSpeed="max" from="-257131031" to="190083625#0"/>
    <trip id="bike9" type="bike_bicycle" depart="20.52" departLane="best" from="38159999#10" to="-115092088#7"/>
    <trip id="bike10" type="bike_bicycle" depart="22.80" departLane="best" from="360099571#1" to="318210373#1"/>
    <trip id="bike11" type="bike_bicycle" depart="25.08" departLane="best" from="-54039583#1" to="-187122892#3"/>
    <trip id="bike12" type="bike_bicycle" depart="27.36" departLane="best" from="887604836#2" to="-629595835#0"/>
    <trip id="bike13" type="bike_bicycle" depart="29.64" departLane="best" from="-142575739#1" to="-143308505#4"/>
    <trip id="bike15" type="bike_bicycle" depart="34.20" departLane="best" departSpeed="max" from="361138490" to="38568630#0"/>
    <trip id="bike16" type="bike_bicycle" depart="36.48" departLane="best" from="141968807#1" to="887910341#12"/>
    <trip id="bike17" type="bike_bicycle" depart="38.76" departLane="best" departSpeed="max" from="-586124018" to="149670382"/>
    <trip id="bike18" type="bike_bicycle" depart="41.04" departLane="best" departSpeed="max" from="40191605#0" to="24038573#0"/>
    <trip id="bike19" type="bike_bicycle" depart="43.32" departLane="best" from="52460499#0" to="180789857#17"/>
    <trip id="bike20" type="bike_bicycle" depart="45.59" departLane="best" from="23913524#3" to="-142575656#1"/>
    <trip id="bike22" type="bike_bicycle" depart="50.15" departLane="best" from="-142575704#19" to="-312192781#1"/>
    <trip id="bike23" type="bike_bicycle" depart="52.43" departLane="best" from="-143308521#11" to="-38574189#3"/>
    <trip id="bike24" type="bike_bicycle" depart="54.71" departLane="best" from="147859765#8" to="-81096582#1"/>
    <trip id="bike25" type="bike_bicycle" depart="56.99" departLane="best" departSpeed="max" from="-581636336#1" to="-259433181#1"/>
    <trip id="bike26" type="bike_bicycle" depart="59.27" departLane="best" from="-32235088#10" to="843832577#1"/>
    <trip id="bike27" type="bike_bicycle" depart="61.55" departLane="best" departSpeed="max" from="152471799" to="224769566#1"/>
    <trip id="bike28" type="bike_bicycle" depart="63.83" departLane="best" departSpeed="max" from="-190083625#1" to="38568628#2"/>
    <trip id="bike29" type="bike_bicycle" depart="66.11" departLane="best" departSpeed="max" from="-183156389" to="-886496558#0"/>
    <trip id="bike30" type="bike_bicycle" depart="68.39" departLane="best" from="92914055#2" to="24791993#4"/>
    <trip id="bike31" type="bike_bicycle" depart="70.67" departLane="best" from="142575677#3" to="312192781#1"/>
    <trip id="bike32" type="bike_bicycle" depart="72.95" departLane="best" from="443454549#2" to="52081116#2"/>
    <trip id="bike33" type="bike_bicycle" depart="75.23" departLane="best" from="-26815978#1" to="-138624445#13"/>
    <trip id="bike34" type="bike_bicycle" depart="77.51" departLane="best" from="-461093303#1" to="-38160000"/>
    <trip id="bike35" type="bike_bicycle" depart="79.79" departLane="best" from="-24733617#1" to="872238235"/>
    <trip id="bike36" type="bike_bicycle" depart="82.07" departLane="best" from="53529600#4" to="-53529431#0"/>
    <trip id="bike37" type="bike_bicycle" depart="84.35" departLane="best" from="169076556#1" to="115092088#3"/>
    <trip id="bike38" type="bike_bicycle" depart="86.63" departLane="best" from="702305710#1" to="142575679#9"/>
    <trip id="bike39" type="bike_bicycle" depart="88.91" departLane="best" from="-320154321#0" to="-320153866"/>
    <trip id="bike40" type="bike_bicycle" depart="91.19" departLane="best" from="142575686#1" to="-360099574#0"/>
    <trip id="bike41" type="bike_bicycle" depart="93.47" departLane="best" from="142575708#1" to="71028777#5"/>
    <trip id="bike42" type="bike_bicycle" depart="95.75" departLane="best" departSpeed="max" from="-586124066" to="-26816737#3"/>
    <trip id="bike43" type="bike_bicycle" depart="98.03" departLane="best" from="976918147#0" to="143308542#1"/>
    <trip id="bike44" type="bike_bicycle" depart="100.31" departLane="best" from="-142575737#0" to="-142575656#15"/>
    <trip id="bike45" type="bike_bicycle" depart="102.59" departLane="best" from="-143308600#1" to="24152593#1"/>
    <trip id="bike46" type="bike_bicycle" depart="104.87" departLane="best" from="32235088#1" to="138624438#1"/>
    <trip id="bike47" type="bike_bicycle" depart="107.15" departLane="best" from="-142575684#0" to="-895850896"/>
    <trip id="bike48" type="bike_bicycle" depart="109.43" departLane="best" from="976390656#8" to="143482755#1"/>
    <trip id="bike49" type="bike_bicycle" depart="111.71" departLane="best" departSpeed="max" from="887715855#0" to="586124074"/>
    <trip id="bike50" type="bike_bicycle" depart="113.99" departLane="best" departSpeed="max" from="-122868966" to="360099564#1"/>
    <trip id="bike52" type="bike_bicycle" depart="118.55" departLane="best" from="-32235088#1" to="24791996#1"/>
    <trip id="bike53" type="bike_bicycle" depart="120.83" departLane="best" departSpeed="max" from="-143308618#1" to="140964905#2"/>
    <trip id="bike54" type="bike_bicycle" depart="123.11" departLane="best" departSpeed="max" from="-821807404" to="887559886#5"/>
    <trip id="bike55" type="bike_bicycle" depart="125.39" departLane="best" from="53529600#2" to="-361138488"/>
    <trip id="bike56" type="bike_bicycle" depart="127.67" departLane="best" from="115227682#3" to="-23913526#0"/>
    <trip id="bike57" type="bike_bicycle" depart="129.95" departLane="best" from="70214888#0" to="617755665"/>
    <trip id="bike58" type="bike_bicycle" depart="132.23" departLane="best" from="-38915289#0" to="24791992"/>
    <trip id="bike59" type="bike_bicycle" depart="134.51" departLane="best" from="143308527#5" to="-180800504#4"/>
    <trip id="bike60" type="bike_bicycle" depart="136.78" departLane="best" from="26991766#4" to="146511461#8"/>
    <trip id="bike61" type="bike_bicycle" depart="139.06" departLane="best" from="314415495#8" to="143482759"/>
    <trip id="bike62" type="bike_bicycle" depart="141.34" departLane="best" departSpeed="max" from="-114024901" to="-54039583#3"/>
    <trip id="bike63" type="bike_bicycle" depart="143.62" departLane="best" from="-135777010#2" to="841345129#7"/>
    <trip id="bike64" type="bike_bicycle" depart="145.90" departLane="best" from="54039583#10" to="583475562"/>
    <trip id="bike65" type="bike_bicycle" depart="148.18" departLane="best" from="-414563788#2" to="-142575677#2"/>
    <trip id="bike66" type="bike_bicycle" depart="150.46" departLane="best" departSpeed="max" from="54039583#0" to="886496546#2"/>
    <trip id="bike67" type="bike_bicycle" depart="152.74" departLane="best" departSpeed="max" from="-142575721#1" to="142575720#2"/>
    <trip id="bike68" type="bike_bicycle" depart="155.02" departLane="best" from="-142575690#5" to="45875459#3"/>
    <trip id="bike69" type="bike_bicycle" depart="157.30" departLane="best" from="290288344" to="-149670370#0"/>
    <trip id="bike70" type="bike_bicycle" depart="159.58" departLane="best" departSpeed="max" from="-847897311" to="149670374#1"/>
    <trip id="bike71" type="bike_bicycle" depart="161.86" departLane="best" from="-320154321#1" to="629992781#0"/>
    <trip id="bike72" type="bike_bicycle" depart="164.14" departLane="best" from="-689735906#0" to="-26004868#1"/>
    <trip id="bike73" type="bike_bicycle" depart="166.42" departLane="best" from="141968844#3" to="38568630#1"/>
    <trip id="bike74" type="bike_bicycle" depart="168.70" departLane="best" from="-24152572#5" to="-53529255#3"/>
    <trip id="bike75" type="bike_bicycle" depart="170.98" departLane="best" from="976390656#4" to="257131028"/>
    <trip id="bike76" type="bike_bicycle" depart="173.26" departLane="best" from="-72077944" to="143308590#0"/>
    <trip id="bike77" type="bike_bicycle" depart="175.54" departLane="best" departSpeed="max" from="-143482759" to="-26991766#5"/>
    <trip id="bike78" type="bike_bicycle" depart="177.82" departLane="best" from="-53529600#0" to="190083623#0"/>
    <trip id="bike79" type="bike_bicycle" depart="180.10" departLane="best" departSpeed="max" from="-26816162#1" to="-26842933#0"/>
    <trip id="bike80" type="bike_bicycle" depart="182.38" departLane="best" from="-142575691#5" to="24152603#2"/>
    <trip id="bike81" type="bike_bicycle" depart="184.66" departLane="best" from="-26815978#1" to="722869703#1"/>
    <trip id="bike82" type="bike_bicycle" depart="186.94" departLane="best" from="52081116#3" to="-142575699#2"/>
    <trip id="bike83" type="bike_bicycle" depart="189.22" departLane="best" from="-26991766#15" to="26842933#0"/>
    <trip id="bike84" type="bike_bicycle" depart="191.50" departLane="best" from="-24791993#1" to="-152447118#4"/>
    <trip id="bike85" type="bike_bicycle" depart="193.78" departLane="best" from="81639678#1" to="175357597#1"/>
    <trip id="bike86" type="bike_bicycle" depart="196.06" departLane="best" departSpeed="max" from="-843949731" to="53529200#4"/>
    <trip id="bike87" type="bike_bicycle" depart="198.34" departLane="best" from="375685717#0" to="-24152593#5"/>
    <trip id="bike88" type="bike_bicycle" depart="200.62" departLane="best" departSpeed="max" from="-142598713" to="138624469#3"/>
    <trip id="bike89" type="bike_bicycle" depart="202.90" departLane="best" from="-70130297#1" to="142575690#6"/>
    <trip id="bike90" type="bike_bicycle" depart="205.18" departLane="best" from="24733697#0" to="26991766#13"/>
    <trip id="bike91" type="bike_bicycle" depart="207.46" departLane="best" departSpeed="max" from="895850896" to="-143308521#3"/>
    <trip id="bike92" type="bike_bicycle" depart="209.74" departLane="best" departSpeed="max" from="-586124072" to="-630078116"/>
    <trip id="bike93" type="bike_bicycle" depart="212.02" departLane="best" from="52460499#0" to="-320741897#0"/>
    <trip id="bike94" type="bike_bicycle" depart="214.30" departLane="best" from="-23913526#0" to="142575657#4"/>
    <trip id="bike95" type="bike_bicycle" depart="216.58" departLane="best" departSpeed="max" from="-686320801#1" to="-38574189#5"/>
    <trip id="bike96" type="bike_bicycle" depart="218.86" departLane="best" departSpeed="max" from="-312192836" to="840101797"/>
    <trip id="bike97" type="bike_bicycle" depart="221.14" departLane="best" from="-73058506#1" to="586124075"/>
    <trip id="bike98" type="bike_bicycle" depart="223.42" departLane="best" from="142575659#1" to="-142575658#1"/>
    <trip id="bike99" type="bike_bicycle" depart="225.70" departLane="best" from="977019132" to="586124018"/>
    <trip id="bike100" type="bike_bicycle" depart="227.97" departLane="best" from="887712505#6" to="840101824#1"/>
    <trip id="bike103" type="bike_bicycle" depart="234.81" departLane="best" departSpeed="max" from="-586124069" to="-142575679#3"/>
    <trip id="bike105" type="bike_bicycle" depart="239.37" departLane="best" from="-320154321#1" to="53529200#2"/>
    <trip id="bike106" type="bike_bicycle" depart="241.65" departLane="best" from="-822215320#0" to="138624438#4"/>
    <trip id="bike107" type="bike_bicycle" depart="243.93" departLane="best" from="887604836#2" to="976390656#9"/>
    <trip id="bike108" type="bike_bicycle" depart="246.21" departLane="best" from="142575674#4" to="357043349#1"/>
    <trip id="bike109" type="bike_bicycle" depart="248.49" departLane="best" departSpeed="max" from="-174657432" to="-45875459#5"/>
    <trip id="bike110" type="bike_bicycle" depart="250.77" departLane="best" from="887712505#5" to="180789857#9"/>
    <trip id="bike111" type="bike_bicycle" depart="253.05" departLane="best" from="142575655#1" to="403442279#2"/>
    <trip id="bike112" type="bike_bicycle" depart="255.33" departLane="best" from="-142575661#5" to="187122892#3"/>
    <trip id="bike113" type="bike_bicycle" depart="257.61" departLane="best" from="118262353#2" to="586124059"/>
    <trip id="bike114" type="bike_bicycle" depart="259.89" departLane="best" from="-175357593#1" to="887612168#10"/>
    <trip id="bike115" type="bike_bicycle" depart="262.17" departLane="best" from="-142575704#2" to="-24038680"/>
    <trip id="bike116" type="bike_bicycle" depart="264.45" departLane="best" from="142575739#0" to="26991766#5"/>
    <trip id="bike117" type="bike_bicycle" depart="266.73" departLane="best" from="-26843019#2" to="-147859763#0"/>
    <trip id="bike118" type="bike_bicycle" depart="269.01" departLane="best" from="581636334#1" to="-320153865"/>
    <trip id="bike119" type="bike_bicycle" depart="271.29" departLane="best" from="142575738#0" to="24038584#0"/>
    <trip id="bike120" type="bike_bicycle" depart="273.57" departLane="best" departSpeed="max" from="-681408360" to="187122892#13"/>
    <trip id="bike121" type="bike_bicycle" depart="275.85" departLane="best" from="138624438#5" to="841976402#1"/>
    <trip id="bike122" type="bike_bicycle" depart="278.13" departLane="best" from="-24152593#8" to="347935096#6"/>
    <trip id="bike123" type="bike_bicycle" depart="280.41" departLane="best" from="-26991766#17" to="115092088#4"/>
    <trip id="bike124" type="bike_bicycle" depart="282.69" departLane="best" from="180789857#2" to="-47770433"/>
    <trip id="bike125" type="bike_bicycle" depart="284.97" departLane="best" departSpeed="max" from="-461093307" to="412992929#3"/>
    <trip id="bike126" type="bike_bicycle" depart="287.25" departLane="best" from="-142575694#4" to="142575679#7"/>
    <trip id="bike127" type="bike_bicycle" depart="289.53" departLane="best" from="976918148#3" to="976732605"/>
    <trip id="bike128" type="bike_bicycle" depart="291.81" departLane="best" from="-142575695#2" to="-26444467#3"/>
    <trip id="bike129" type="bike_bicycle" depart="294.09" departLane="best" from="-320154321#1" to="841976396#1"/>
    <trip id="bike130" type="bike_bicycle" depart="296.37" departLane="best" from="54039583#19" to="679894150"/>
    <trip id="bike131" type="bike_bicycle" depart="298.65" departLane="best" from="-581636336#0" to="-187123053#1"/>
    <trip id="bike132" type="bike_bicycle" depart="300.93" departLane="best" from="40985809#1" to="320153867"/>
    <trip id="bike133" type="bike_bicycle" depart="303.21" departLane="best" from="143308542#6" to="92914055#4"/>
    <trip id="bike134" type="bike_bicycle" depart="305.49" departLane="best" from="166142947" to="-115227682#1"/>
    <trip id="bike135" type="bike_bicycle" depart="307.77" departLane="best" from="38568633#2" to="-47765623#2"/>
    <trip id="bike136" type="bike_bicycle" depart="310.05" departLane="best" from="175357041#1" to="843949729"/>
    <trip id="bike138" type="bike_bicycle" depart="314.61" departLane="best" from="-143308562#10" to="152447118#4"/>
    <trip id="bike140" type="bike_bicycle" depart="319.16" departLane="best" from="24152593#5" to="-24791993#4"/>
    <trip id="bike141" type="bike_bicycle" depart="321.44" departLane="best" from="147859765#1" to="-375685717#0"/>
    <trip id="bike142" type="bike_bicycle" depart="323.72" departLane="best" departSpeed="max" from="-964685888" to="722869703#1"/>
    <trip id="bike143" type="bike_bicycle" depart="326.00" departLane="best" from="45875459#4" to="-142575743#2"/>
    <trip id="bike144" type="bike_bicycle" depart="328.28" departLane="best" from="-70130297#1" to="-38574189#10"/>
    <trip id="bike145" type="bike_bicycle" depart="330.56" departLane="best" from="-114697065#0" to="503159211"/>
    <trip id="bike146" type="bike_bicycle" depart="332.84" departLane="best" from="149611511#3" to="-360099566"/>
    <trip id="bike147" type="bike_bicycle" depart="335.12" departLane="best" from="25728863#2" to="149670380#2"/>
    <trip id="bike148" type="bike_bicycle" depart="337.40" departLane="best" from="-708544917#0" to="-116343628#3"/>
    <trip id="bike149" type="bike_bicycle" depart="339.68" departLane="best" from="-142575700#2" to="686320801#1"/>
    <trip id="bike150" type="bike_bicycle" depart="341.96" departLane="best" from="677933664#4" to="149611514#4"/>
    <trip id="bike151" type="bike_bicycle" depart="344.24" departLane="best" from="40985813#1" to="187122892#10"/>
    <trip id="bike152" type="bike_bicycle" depart="346.52" departLane="best" from="-166142947" to="-149611534#0"/>
    <trip id="bike153" type="bike_bicycle" depart="348.80" departLane="best" from="-432929065" to="71960633#2"/>
    <trip id="bike154" type="bike_bicycle" depart="351.08" departLane="best" departSpeed="max" from="328868437" to="586124074"/>
    <trip id="bike155" type="bike_bicycle" depart="353.36" departLane="best" departSpeed="max" from="630078115" to="-25944448"/>
    <trip id="bike156" type="bike_bicycle" depart="355.64" departLane="best" departSpeed="max" from="-312192827" to="-143308560#2"/>
    <trip id="bike157" type="bike_bicycle" depart="357.92" departLane="best" departSpeed="max" from="318210355" to="689735906#0"/>
    <trip id="bike158" type="bike_bicycle" depart="360.20" departLane="best" departSpeed="max" from="-586124079" to="24038584#6"/>
    <trip id="bike159" type="bike_bicycle" depart="362.48" departLane="best" departSpeed="max" from="-174657432" to="841345134#2"/>
    <trip id="bike160" type="bike_bicycle" depart="364.76" departLane="best" from="526210068#0" to="887910341#26"/>
    <trip id="bike161" type="bike_bicycle" depart="367.04" departLane="best" from="38159999#7" to="683972873#2"/>
    <trip id="bike162" type="bike_bicycle" depart="369.32" departLane="best" from="-137534616#1" to="38574189#11"/>
    <trip id="bike163" type="bike_bicycle" depart="371.60" departLane="best" from="-53529255#3" to="841345135#1"/>
    <trip id="bike164" type="bike_bicycle" depart="373.88" departLane="best" from="354084465" to="586124080"/>
    <trip id="bike165" type="bike_bicycle" depart="376.16" departLane="best" from="38159999#7" to="-38159999#6"/>
    <trip id="bike166" type="bike_bicycle" depart="378.44" departLane="best" from="320153864" to="-143308646#1"/>
    <trip id="bike167" type="bike_bicycle" depart="380.72" departLane="best" from="53529431#0" to="586124070"/>
    <trip id="bike168" type="bike_bicycle" depart="383.00" departLane="best" from="-259433181#2" to="579613014"/>
    <trip id="bike169" type="bike_bicycle" depart="385.28" departLane="best" departSpeed="max" from="-840101825" to="-52460499#1"/>
    <trip id="bike170" type="bike_bicycle" depart="387.56" departLane="best" from="328287315" to="-302943908#0"/>
    <trip id="bike171" type="bike_bicycle" depart="389.84" departLane="best" from="-137483015#3" to="-24152603#0"/>
    <trip id="bike172" type="bike_bicycle" depart="392.12" departLane="best" from="-526210068#2" to="586124081"/>
    <trip id="bike173" type="bike_bicycle" depart="394.40" departLane="best" from="887637458#3" to="-38574189#7"/>
    <trip id="bike174" type="bike_bicycle" depart="396.68" departLane="best" from="149611534#2" to="116391654#1"/>
    <trip id="bike177" type="bike_bicycle" depart="403.52" departLane="best" from="887712506#2" to="-23913526#0"/>
    <trip id="bike178" type="bike_bicycle" depart="405.80" departLane="best" from="887612168#11" to="-38159999#1"/>
    <trip id="bike179" type="bike_bicycle" depart="408.08" departLane="best" from="-143308566#0" to="140964905#2"/>
    <trip id="bike180" type="bike_bicycle" depart="410.35" departLane="best" from="24733617#2" to="-53529411#0"/>
    <trip id="bike181" type="bike_bicycle" depart="412.63" departLane="best" from="143308523#4" to="143308542#6"/>
    <trip id="bike182" type="bike_bicycle" depart="414.91" departLane="best" departSpeed="max" from="-586124040" to="180789857#14"/>
    <trip id="bike183" type="bike_bicycle" depart="417.19" departLane="best" from="-314415495#21" to="32235088#6"/>
    <trip id="bike184" type="bike_bicycle" depart="419.47" departLane="best" departSpeed="max" from="-114024905" to="840101818"/>
    <trip id="bike185" type="bike_bicycle" depart="421.75" departLane="best" from="141968830#2" to="360099557"/>
    <trip id="bike186" type="bike_bicycle" depart="424.03" departLane="best" from="259433181#1" to="26843019#3"/>
    <trip id="bike187" type="bike_bicycle" depart="426.31" departLane="best" departSpeed="max" from="-581596943" to="-142575695#1"/>
    <trip id="bike188" type="bike_bicycle" depart="428.59" departLane="best" from="175357591" to="-579269913#1"/>
    <trip id="bike189" type="bike_bicycle" depart="430.87" departLane="best" from="-45875459#2" to="586124050"/>
    <trip id="bike190" type="bike_bicycle" depart="433.15" departLane="best" from="24152597#6" to="-47773406"/>
    <trip id="bike191" type="bike_bicycle" depart="435.43" departLane="best" departSpeed="max" from="-439105525#1" to="135777010#15"/>
    <trip id="bike192" type="bike_bicycle" depart="437.71" departLane="best" departSpeed="max" from="-586124072" to="-45875459#1"/>
    <trip id="bike194" type="bike_bicycle" depart="442.27" departLane="best" from="841345129#7" to="28888490#1"/>
    <trip id="bike195" type="bike_bicycle" depart="444.55" departLane="best" from="670062930#2" to="23919022#3"/>
    <trip id="bike196" type="bike_bicycle" depart="446.83" departLane="best" departSpeed="max" from="-397678489" to="149611526#0"/>
    <trip id="bike197" type="bike_bicycle" depart="449.11" departLane="best" departSpeed="max" from="-114024901" to="-40985813#0"/>
    <trip id="bike198" type="bike_bicycle" depart="451.39" departLane="best" from="-708544920#3" to="180800504#3"/>
    <trip id="bike199" type="bike_bicycle" depart="453.67" departLane="best" from="169076542" to="142575688#9"/>
    <trip id="bike200" type="bike_bicycle" depart="455.95" departLane="best" departSpeed="max" from="-721674203" to="-26444467#5"/>
    <trip id="bike201" type="bike_bicycle" depart="458.23" departLane="best" departSpeed="max" from="-843949732" to="72077947#1"/>
    <trip id="bike203" type="bike_bicycle" depart="462.79" departLane="best" from="-142575720#1" to="143308562#3"/>
    <trip id="bike204" type="bike_bicycle" depart="465.07" departLane="best" from="146738852#1" to="-59461375#1"/>
    <trip id="bike206" type="bike_bicycle" depart="469.63" departLane="best" from="180789857#8" to="-26991766#5"/>
    <trip id="bike207" type="bike_bicycle" depart="471.91" departLane="best" departSpeed="max" from="-24038661#1" to="-138624421#19"/>
    <trip id="bike208" type="bike_bicycle" depart="474.19" departLane="best" from="-31050360#2" to="142575699#2"/>
    <trip id="bike209" type="bike_bicycle" depart="476.47" departLane="best" from="46150483#1" to="-142575700#4"/>
    <trip id="bike210" type="bike_bicycle" depart="478.75" departLane="best" from="-629992782" to="24152597#1"/>
    <trip id="bike211" type="bike_bicycle" depart="481.03" departLane="best" from="-24038573#1" to="318210361#1"/>
    <trip id="bike212" type="bike_bicycle" depart="483.31" departLane="best" departSpeed="max" from="114207227" to="-318210380#1"/>
    <trip id="bike213" type="bike_bicycle" depart="485.59" departLane="best" from="169076559#1" to="-114952399#2"/>
    <trip id="bike214" type="bike_bicycle" depart="487.87" departLane="best" from="26444467#5" to="503159209"/>
    <trip id="bike215" type="bike_bicycle" depart="490.15" departLane="best" from="-143308560#2" to="138624445#13"/>
    <trip id="bike217" type="bike_bicycle" depart="494.71" departLane="best" from="138624421#25" to="-142575657#6"/>
    <trip id="bike218" type="bike_bicycle" depart="496.99" departLane="best" departSpeed="max" from="-312192827" to="586124051"/>
    <trip id="bike219" type="bike_bicycle" depart="499.27" departLane="best" departSpeed="max" from="-840101797" to="541676219"/>
    <trip id="bike220" type="bike_bicycle" depart="501.54" departLane="best" from="180239835" to="92914084#0"/>
    <trip id="bike221" type="bike_bicycle" depart="503.82" departLane="best" from="142575739#2" to="886496552#8"/>
    <trip id="bike222" type="bike_bicycle" depart="506.10" departLane="best" from="582467484#1" to="23788323"/>
    <trip id="bike223" type="bike_bicycle" depart="508.38" departLane="best" from="24152597#2" to="143308523#0"/>
    <trip id="bike224" type="bike_bicycle" depart="510.66" departLane="best" from="40191606#3" to="149611524#2"/>
    <trip id="bike225" type="bike_bicycle" depart="512.94" departLane="best" departSpeed="max" from="629595836" to="397678492#1"/>
    <trip id="bike226" type="bike_bicycle" depart="515.22" departLane="best" departSpeed="max" from="-845194204" to="-347935096#6"/>
    <trip id="bike227" type="bike_bicycle" depart="517.50" departLane="best" from="-312192780#0" to="24733697#2"/>
    <trip id="bike228" type="bike_bicycle" depart="519.78" departLane="best" from="28888490#2" to="143308626"/>
    <trip id="bike229" type="bike_bicycle" depart="522.06" departLane="best" departSpeed="max" from="143482766#0" to="-38569937#0"/>
    <trip id="bike230" type="bike_bicycle" depart="524.34" departLane="best" from="-142575701#4" to="-40636828#0"/>
    <trip id="bike232" type="bike_bicycle" depart="528.90" departLane="best" from="141968844#7" to="-166142951#1"/>
    <trip id="bike233" type="bike_bicycle" depart="531.18" departLane="best" from="-26816590#0" to="314415495#8"/>
    <trip id="bike234" type="bike_bicycle" depart="533.46" departLane="best" from="23925119#1" to="-142575688#9"/>
    <trip id="bike235" type="bike_bicycle" depart="535.74" departLane="best" departSpeed="max" from="-586124082" to="147859765#8"/>
    <trip id="bike236" type="bike_bicycle" depart="538.02" departLane="best" from="-670062930#1" to="-257005614#7"/>
    <trip id="bike237" type="bike_bicycle" depart="540.30" departLane="best" from="-683972873#0" to="72230304#1"/>
    <trip id="bike238" type="bike_bicycle" depart="542.58" departLane="best" departSpeed="max" from="142575706" to="318210353"/>
    <trip id="bike239" type="bike_bicycle" depart="544.86" departLane="best" departSpeed="max" from="52081093#0" to="461514282#0"/>
    <trip id="bike240" type="bike_bicycle" depart="547.14" departLane="best" departSpeed="max" from="-586124025" to="-115092088#3"/>
    <trip id="bike241" type="bike_bicycle" depart="549.42" departLane="best" from="-579026240#2" to="414563788#0"/>
    <trip id="bike242" type="bike_bicycle" depart="551.70" departLane="best" from="48858193#1" to="887559886#1"/>
    <trip id="bike243" type="bike_bicycle" depart="553.98" departLane="best" from="-679901152#1" to="403442279#1"/>
    <trip id="bike245" type="bike_bicycle" depart="558.54" departLane="best" departSpeed="max" from="-257131031" to="-26816737#3"/>
    <trip id="bike246" type="bike_bicycle" depart="560.82" departLane="best" from="-71960633#1" to="-138624438#1"/>
    <trip id="bike247" type="bike_bicycle" depart="563.10" departLane="best" from="-53529476#0" to="302943909#1"/>
    <trip id="bike249" type="bike_bicycle" depart="567.66" departLane="best" departSpeed="max" from="-841976398#1" to="-149611534#1"/>
    <trip id="bike250" type="bike_bicycle" depart="569.94" departLane="best" from="143308673#1" to="-138624421#34"/>
    <trip id="bike251" type="bike_bicycle" depart="572.22" departLane="best" departSpeed="max" from="-586124057" to="172014854#0"/>
    <trip id="bike252" type="bike_bicycle" depart="574.50" departLane="best" from="-138624421#13" to="24931845#3"/>
    <trip id="bike253" type="bike_bicycle" depart="576.78" departLane="best" from="-149611514#3" to="142575686#5"/>
    <trip id="bike254" type="bike_bicycle" depart="579.06" departLane="best" from="-142575656#12" to="-886496546#2"/>
    <trip id="bike255" type="bike_bicycle" depart="581.34" departLane="best" from="-24733697#0" to="-543074343#1"/>
    <trip id="bike256" type="bike_bicycle" depart="583.62" departLane="best" from="26991766#14" to="-886496546#2"/>
    <trip id="bike257" type="bike_bicycle" depart="585.90" departLane="best" from="26444467#9" to="583563978#1"/>
    <trip id="bike258" type="bike_bicycle" depart="588.18" departLane="best" from="-314415495#10" to="-142575712"/>
    <trip id="bike259" type="bike_bicycle" depart="590.45" departLane="best" from="-135777010#19" to="146511461#9"/>
    <trip id="bike260" type="bike_bicycle" depart="592.73" departLane="best" from="977639652" to="-70255226#0"/>
    <trip id="bike261" type="bike_bicycle" depart="595.01" departLane="best" from="153021549#3" to="52460499#9"/>