<?xml version="1.0" encoding="UTF-8"?>

<!-- generated on 2021-09-02 15:28:09 by Eclipse SUMO polyconvert Version v1_10_0+0439-d8ad35fb326
<configuration xmlns:xsi="http://www.w3.org/2001/XMLSchema-instance" xsi:noNamespaceSchemaLocation="http://sumo.dlr.de/xsd/polyconvertConfiguration.xsd">

    <input>
        <net-file value="osm.net.xml"/>
        <osm-files value="osm_bbox.osm.xml"/>
        <osm.keep-full-type value="true"/>
        <type-file value="c:\erdm_ja\sumo-dev\data\typemap\osmPolyconvert.typ.xml"/>
    </input>

    <output>
        <output-file value="osm.poly.xml"/>
    </output>

    <processing>
        <poi-layer-offset value="5"/>
    </processing>

    <report>
        <verbose value="true"/>
    </report>

</configuration>
-->

<additional xmlns:xsi="http://www.w3.org/2001/XMLSchema-instance" xsi:noNamespaceSchemaLocation="http://sumo.dlr.de/xsd/additional_file.xsd">
    <location netOffset="-397692.81,-5808927.41" convBoundary="-3618.77,-3021.32,5469.60,9118.35" origBoundary="13.439880,52.394122,13.575739,52.502328" projParameter="+proj=utm +zone=33 +ellps=WGS84 +datum=WGS84 +units=m +no_defs"/>

    <poly id="108052319" type="building.industrial" color="255,230,230" fill="1" layer="-1.00" shape="1475.488681,454.954901 1506.320183,449.204083 1519.145333,518.016331 1487.080922,523.992659 1483.182789,503.076320 1484.246605,502.876466 1482.839485,495.294589 1478.157238,496.169530 1476.116631,485.229225 1479.667305,484.566654 1478.429152,477.927091 1479.723461,477.689126 1475.488681,454.954901"/>
    <poly id="113747178" type="historic.memorial" color="128,255,128" fill="1" layer="-1.00" shape="1433.201959,547.830407 1354.481456,563.322054 1350.587286,543.618545 1429.308098,528.126840 1433.201959,547.830407"/>
    <poly id="114033003" type="amenity.parking" color="184,184,179" fill="1" layer="-1.00" shape="2369.394988,790.170569 2363.797538,785.499903 2359.072103,781.568127 2381.237549,755.102973 2386.066781,759.121675 2391.560221,763.694340 2369.394988,790.170569"/>
    <poly id="114033007" type="amenity.parking" color="184,184,179" fill="1" layer="-1.00" shape="2373.260613,793.630263 2378.699864,798.215142 2384.443452,803.049753 2406.933233,776.477980 2401.141143,771.599821 2395.757179,767.058300 2373.260613,793.630263"/>
    <poly id="114207226" type="amenity.parking" color="184,184,179" fill="1" layer="-1.00" shape="2378.831778,637.464163 2388.014432,627.107589 2369.799083,611.043769 2360.623234,621.400239 2378.831778,637.464163"/>
    <poly id="114207228" type="amenity.parking" color="184,184,179" fill="1" layer="-1.00" shape="2366.739380,649.560072 2375.226416,640.118886 2357.997121,624.713791 2349.517114,634.165990 2366.739380,649.560072"/>
    <poly id="114207233" type="amenity.parking" color="184,184,179" fill="1" layer="-1.00" shape="2393.434795,672.572579 2384.060611,664.139946 2400.997099,645.414189 2410.371286,653.846855 2393.434795,672.572579"/>
    <poly id="114207537" type="building.yes" color="255,230,230" fill="0" layer="-1.00" shape="2504.742737,732.086447 2510.776202,735.791515"/>
    <poly id="114285330" type="landuse.commercial" color="209,209,204" fill="0" layer="-3.00" shape="3251.167771,637.494377 3254.490669,640.375972 3255.404493,641.169801 3258.035163,643.453383 3260.873386,645.910809"/>
    <poly id="114285335" type="leisure.playground" color="207,245,201" fill="1" layer="-2.00" shape="3252.832839,601.321311 3251.547192,609.414079 3248.975036,614.083504 3246.598077,612.239880 3245.345715,611.185836 3243.840694,614.131369 3238.590077,611.110615 3238.802242,607.801710 3251.653533,596.805391 3252.832839,601.321311"/>
    <poly id="114355949" type="amenity.parking" color="184,184,179" fill="0" layer="-1.00" shape="3270.579622,629.047400 3265.740858,624.861142 3270.281434,619.651354 3272.420641,621.510907 3273.065347,620.763553 3273.783496,619.947958 3271.838246,618.262523 3278.167191,611.002771 3282.798403,615.015196"/>
    <poly id="114692655" type="building.yes" color="255,230,230" fill="1" layer="-1.00" shape="2557.028833,611.223139 2566.802874,613.227848 2565.619848,618.948752 2555.845592,616.932923 2557.028833,611.223139"/>
    <poly id="114697179" type="amenity.parking" color="184,184,179" fill="1" layer="-1.00" shape="2324.934117,840.355443 2326.286325,841.963564 2330.419313,846.864264 2339.209620,836.637956 2364.138454,807.946776 2361.960212,806.188543 2357.045359,801.637523 2324.934117,840.355443"/>
    <poly id="114697180" type="building.yes" color="255,230,230" fill="1" layer="-1.00" shape="2326.699434,850.567275 2321.186506,847.040996 2317.916893,852.147952 2323.429592,855.663105 2326.699434,850.567275"/>
    <poly id="115478858" type="landuse.residential" color="235,235,227" fill="1" layer="-3.00" shape="1007.301215,1700.333014 985.030776,1698.066214 949.340431,1698.635567 868.070873,1656.250567 889.161230,1617.482997 893.699321,1609.021895 951.979099,1491.309591 1019.006578,1526.601400 1047.738104,1524.896430 1052.125605,1598.198852 1026.018020,1600.161266 1020.470759,1619.057800 1007.301215,1700.333014"/>
    <poly id="115758495" type="building.office" color="255,230,230" fill="1" layer="-1.00" shape="3478.735148,632.244922 3468.825166,624.132602 3461.654785,632.855493 3471.564762,640.967800 3478.735148,632.244922"/>
    <poly id="115758496" type="building.office" color="255,230,230" fill="1" layer="-1.00" shape="3476.428116,616.624956 3472.477579,621.422120 3476.806644,624.962352 3480.750607,620.176451 3476.428116,616.624956"/>
    <poly id="115758497" type="building.office" color="255,230,230" fill="1" layer="-1.00" shape="3457.143733,632.779332 3447.846196,644.293324 3425.536584,626.372031 3434.827308,614.858133 3457.143733,632.779332"/>
    <poly id="115758498" type="building.office" color="255,230,230" fill="1" layer="-1.00" shape="3472.062324,613.964470 3462.566066,625.070742 3452.753329,616.722836 3462.256381,605.616409 3472.062324,613.964470"/>
    <poly id="115758499" type="building.office" color="255,230,230" fill="1" layer="-1.00" shape="3454.024289,598.416135 3448.242475,594.003885 3438.910265,606.163936 3444.698873,610.576039 3454.024289,598.416135"/>
    <poly id="115921102" type="waterway.drain" color="181,209,209" fill="0" layer="-4.00" shape="2510.871962,814.856263 2440.649628,754.440400"/>
    <poly id="116372813" type="building.yes" color="255,230,230" fill="0" layer="-1.00" shape="2561.596944,693.190161 2559.821006,694.160856 2557.728257,694.937701 2554.967892,695.327536 2552.628630,695.352768 2550.271054,694.810909 2548.179111,693.952110 2546.079490,692.715158 2543.747903,690.103200 2542.417982,687.915977 2541.687741,685.449537 2541.300805,683.476832 2541.327321,680.427565 2542.188997,676.971906 2544.180394,673.882749 2546.731060,671.538858 2549.422397,670.093380 2552.358445,669.310540 2555.825886,669.240153 2559.687106,670.474732 2562.265365,671.835496"/>
    <poly id="116391625" type="landuse.brownfield" color="194,194,130" fill="1" layer="-3.00" shape="2694.669055,623.274272 2699.965678,616.802419 2759.377488,546.546064 2757.803143,526.917026 2699.760441,531.842841 2603.158252,544.494590 2694.669055,623.274272"/>
    <poly id="116391627" type="building.yes" color="255,230,230" fill="1" layer="-1.00" shape="2664.979355,547.123956 2664.409324,540.815528 2667.165917,540.570481 2666.746652,535.994767 2672.246019,535.493832 2673.242097,546.377838 2664.979355,547.123956"/>
    <poly id="116403010" type="landuse.grass" color="194,194,130" fill="1" layer="-3.00" shape="2531.919365,754.400042 2544.918340,752.111056 2548.270898,769.167060 2537.509138,772.434276 2538.376576,764.238504 2531.919365,754.400042"/>
    <poly id="116517353" type="leisure.playground" color="207,245,201" fill="1" layer="-2.00" shape="1258.696502,1493.303131 1297.125871,1485.970264 1297.715925,1476.300024 1298.327915,1466.373415 1298.688450,1460.424263 1261.270989,1454.473087 1261.267131,1455.608105 1261.256311,1457.065946 1258.955636,1491.684407 1258.696502,1493.303131"/>
    <poly id="118132032" type="building.university" color="255,230,230" fill="1" layer="-1.00" shape="2043.066479,1093.335942 2041.883418,1095.685583 2040.857616,1097.742718 2039.789447,1100.056635 2042.269512,1101.274480 2040.689913,1104.522357 2009.539451,1089.135547 2010.895610,1086.270532 2014.814918,1088.026452 2015.867678,1085.957633 2016.959413,1083.799005 2019.438811,1084.983472 2020.529627,1082.446553 2032.131190,1088.051338 2043.066479,1093.335942"/>
    <poly id="118132044" type="building.industrial" color="255,230,230" fill="1" layer="-1.00" shape="2003.689740,1066.778837 1995.930723,1082.492493 1994.199376,1081.637696 1992.262034,1080.686964 1944.397731,1057.163200 1952.156857,1041.460584 2003.689740,1066.778837"/>
    <poly id="118132050" type="landuse.construction" color="194,194,130" fill="1" layer="-3.00" shape="2600.632739,1856.779370 2431.216710,2044.435978 2553.631710,2147.129780 2766.685571,1894.814351 2825.510280,1816.814734 2863.721565,1763.144503 2897.698617,1711.563096 2938.885875,1673.822410 2985.738674,1632.729665 3012.738053,1607.259997 3075.821946,1532.026006 3077.528518,1529.988726 3069.800003,1524.781754 2955.548310,1459.707471 2928.807549,1488.576979 2839.855256,1588.948947 2911.051172,1651.920632 2917.777583,1659.695651 2910.545616,1666.929704 2847.670855,1724.069649 2793.002161,1757.555637 2722.633197,1816.896418 2733.597488,1836.813582 2655.467146,1900.963713 2600.632739,1856.779370"/>
    <poly id="118132057" type="amenity.research_institute" color="237,199,199" fill="0" layer="-2.00" shape="2107.759516,999.307863 2077.217189,1064.766575"/>
    <poly id="118132057#1" type="landuse.commercial" color="209,209,204" fill="0" layer="-3.00" shape="2107.759516,999.307863 2077.217189,1064.766575"/>
    <poly id="118132465" type="landuse.industrial" color="209,209,204" fill="1" layer="-3.00" shape="3480.654599,553.507332 3470.945117,555.371601 3440.468270,584.546832 3389.293831,647.496643 3333.063168,714.977292 3450.727052,813.527837 3466.058811,826.104119 3584.173809,923.001883 3713.180218,778.591191 3713.095642,774.375883 3654.687297,717.934257 3612.531879,676.988964 3516.326137,579.705533 3504.266835,567.875532 3503.977644,570.407101 3492.615098,561.433801 3480.654599,553.507332"/>
    <poly id="118132466" type="building.office" color="255,230,230" fill="1" layer="-1.00" shape="3483.509604,783.071183 3490.984057,789.140685 3500.898916,797.175056 3539.723882,749.573484 3530.762880,742.298729 3523.848502,736.685227 3522.327279,735.447367 3483.509604,783.071183"/>
    <poly id="118132967" type="landuse.greenfield" color="242,242,204" fill="1" layer="-3.00" shape="2118.427664,634.209815 2113.958871,590.172128 2038.918713,597.733357 1864.653952,615.300712 1861.549439,660.416564 1867.151734,659.968251 2118.427664,634.209815"/>
    <poly id="118132967#1" type="natural.grassland" color="140,196,107" fill="1" layer="-4.00" shape="2118.427664,634.209815 2113.958871,590.172128 2038.918713,597.733357 1864.653952,615.300712 1861.549439,660.416564 1867.151734,659.968251 2118.427664,634.209815"/>
    <poly id="118132968" type="landuse.commercial" color="209,209,204" fill="1" layer="-3.00" shape="1689.696034,639.497799 1840.457354,650.777981 1830.817343,773.102827 1667.910640,761.092624 1689.696034,639.497799"/>
    <poly id="118132968#1" type="shop.car" color="237,199,255" fill="1" layer="-1.00" shape="1689.696034,639.497799 1840.457354,650.777981 1830.817343,773.102827 1667.910640,761.092624 1689.696034,639.497799"/>
    <poly id="118132969" type="man_made.wastewater_plant" color="255,230,230" fill="1" layer="-1.00" shape="2116.451456,675.063126 2113.918977,647.264435 2119.682434,646.712985 2118.427664,634.209815 1867.151734,659.968251 1864.160386,702.300093 1950.971227,708.993947 1950.803665,712.112870 1974.464680,714.010848 1974.723808,710.712028 2079.006663,718.353263 2074.585702,679.343926 2116.451456,675.063126"/>
    <poly id="118132970" type="building.commercial" color="255,230,230" fill="1" layer="-1.00" shape="1804.989153,739.393836 1805.225949,736.006445 1806.634499,715.749112 1830.848987,717.434798 1832.967198,686.970819 1784.667311,683.608021 1782.543508,714.116652 1800.369092,715.365421 1798.959885,735.589389 1798.729438,738.954397 1698.354871,731.862187 1696.904192,752.365218 1696.234761,761.858967 1732.832718,764.436697 1736.470098,764.696056 1758.804959,766.275202 1761.202682,766.448677 1779.321116,767.724752 1784.300352,768.079091 1827.226083,771.106674 1829.346984,741.109960 1804.989153,739.393836"/>
    <poly id="118132971" type="landuse.commercial" color="209,209,204" fill="1" layer="-3.00" shape="1969.510345,724.537808 1965.206921,782.262454 1993.582547,784.564949 2019.252726,787.946486 2060.321426,794.652452 2124.153598,808.972654 2130.043512,804.958204 2132.010048,771.304114 2129.517721,736.461346 1969.510345,724.537808"/>
    <poly id="118133067" type="landuse.village_green" color="242,242,204" fill="1" layer="-3.00" shape="2079.006663,718.353263 2079.206391,721.809619 2092.228684,723.001639 2128.620631,726.487787 2128.410300,724.511508 2124.052491,683.575919 2123.622986,679.523402 2116.451456,675.063126 2074.585702,679.343926 2079.006663,718.353263"/>
    <poly id="118133068" type="building.yes" color="255,230,230" fill="1" layer="-1.00" shape="1988.689307,697.798004 1975.126637,696.795317 1977.121933,669.927892 1984.655833,670.475069 1985.199918,663.142535 1991.235568,663.597914 1988.689307,697.798004"/>
    <poly id="118133069" type="building.yes" color="255,230,230" fill="1" layer="-1.00" shape="2096.470247,666.502366 2078.161932,668.266597 2076.478400,650.754002 2094.787007,649.000888 2096.470247,666.502366"/>
    <poly id="118133070" type="natural.wetland" color="181,209,209" fill="1" layer="-4.00" shape="1998.156474,658.772261 1995.104510,704.187343 2072.827239,709.844922 2066.762507,651.608660 1998.156474,658.772261"/>
    <poly id="118133071" type="natural.wetland" color="181,209,209" fill="1" layer="-4.00" shape="1950.901947,700.605762 1912.925295,697.475970 1870.090981,693.956173 1871.431025,671.664066 1953.596234,663.008950 1950.901947,700.605762"/>
    <poly id="118261965" type="waterway.drain" color="181,209,209" fill="0" layer="-4.00" shape="2199.915650,348.504996 2232.142195,465.313926"/>
    <poly id="118377362" type="amenity.school" color="237,199,199" fill="1" layer="-2.00" shape="3694.500692,1422.977750 3667.887737,1406.944376 3646.088675,1394.597538 3593.518714,1363.063462 3563.021265,1402.152400 3566.440267,1404.097614 3577.948679,1410.954029 3598.860240,1423.463046 3623.007108,1437.921091 3626.538177,1440.030995 3612.274811,1458.520765 3596.440708,1479.044943 3573.404235,1516.448459 3611.849453,1540.254808 3652.255329,1565.880230 3709.955241,1487.202293 3754.289813,1515.787286 3782.424611,1477.536927 3694.500692,1422.977750"/>
    <poly id="118377496" type="amenity.kindergarten" color="237,199,199" fill="1" layer="-2.00" shape="3694.500692,1422.977750 3725.293775,1370.787627 3640.602145,1320.515018 3624.623403,1322.694092 3593.518714,1363.063462 3646.088675,1394.597538 3667.887737,1406.944376 3694.500692,1422.977750"/>
    <poly id="119776042" type="building.yes" color="255,230,230" fill="0" layer="-1.00" shape="2817.973412,782.959575 2760.483663,732.773996 2768.142419,724.051270 2778.593189,712.134269 2810.983669,740.407837"/>
    <poly id="122072337" type="building.apartments" color="255,230,230" fill="1" layer="-1.00" shape="3567.544293,1666.097812 3559.772124,1660.034214 3562.675436,1656.292921 3561.597362,1655.435582 3564.774012,1651.421755 3565.857320,1652.201102 3568.926556,1648.256197 3576.831685,1654.506291 3573.992312,1658.046010 3574.241270,1658.252414 3573.597782,1659.055342 3573.335676,1658.871456 3571.790080,1660.805184 3572.032240,1661.011724 3571.123335,1662.142661 3570.874601,1661.947380 3567.544293,1666.097812"/>
    <poly id="122072357" type="building.detached" color="255,230,230" fill="1" layer="-1.00" shape="3652.434942,1665.237910 3651.169259,1667.566551 3649.071450,1666.384746 3650.337132,1664.056104 3646.851259,1662.156687 3653.804504,1653.182460 3663.423002,1658.408007 3662.183385,1660.680488 3663.936404,1661.624436 3660.998099,1667.013119 3659.355182,1666.133722 3658.155237,1668.349775 3652.434942,1665.237910"/>
    <poly id="122072390" type="building.yes" color="255,230,230" fill="1" layer="-1.00" shape="3592.591146,1628.609332 3586.898321,1624.161786 3585.778117,1623.238528 3587.721304,1620.784987 3586.180190,1619.558641 3590.749287,1613.769960 3592.062059,1614.800617 3594.741234,1611.408775 3601.788961,1616.952903 3592.591146,1628.609332"/>
    <poly id="122072464" type="building.garage" color="255,230,230" fill="1" layer="-1.00" shape="3270.051279,1666.678718 3265.032813,1663.987088 3267.104294,1660.484917 3268.098655,1658.873751 3267.657784,1658.593344 3273.425264,1648.852467 3273.876215,1648.620841 3274.424573,1648.498520 3275.711631,1649.262571 3278.250730,1645.005489 3278.511951,1645.144871 3278.986128,1644.378696 3282.204370,1646.149730 3278.371219,1652.669364 3270.051279,1666.678718"/>
    <poly id="122072476" type="building.apartments" color="255,230,230" fill="1" layer="-1.00" shape="3606.200950,1665.621403 3604.556551,1664.330366 3603.960195,1665.110090 3604.305880,1665.392438 3598.248279,1673.247200 3592.630952,1668.831512 3592.207087,1669.396364 3591.985991,1669.222779 3591.254188,1669.014951 3590.581105,1668.683549 3589.993706,1668.216905 3589.506036,1667.636990 3589.139155,1666.976762 3588.897443,1666.792465 3589.335127,1666.238462 3587.918394,1665.109756 3590.734697,1661.436988 3591.763395,1662.206312 3593.465434,1659.935646 3593.064920,1659.632146 3596.327725,1655.505342 3597.516789,1656.471725 3605.158350,1646.560081 3607.984573,1648.795395 3608.256568,1648.456130 3608.470644,1648.618729 3609.594377,1649.041220 3610.419912,1649.514209 3611.242672,1650.187533 3613.198808,1652.440332 3612.658546,1651.950485 3612.393348,1652.289613 3618.570881,1657.172518 3618.849674,1656.833116 3619.077567,1657.006565 3620.064676,1657.398423 3620.779885,1657.795742 3621.587483,1658.391487 3622.184135,1658.980342 3623.224222,1660.316904 3622.979640,1660.666745 3627.077367,1663.911309 3626.739631,1664.363161 3628.639777,1665.860475 3628.998129,1665.419336 3630.995226,1667.003717 3629.285258,1669.218895 3629.755531,1669.610010 3629.576914,1669.858385 3629.476197,1670.260968 3629.328120,1670.675630 3629.118867,1671.091521 3628.847989,1671.486396 3628.528858,1671.848861 3628.181644,1672.167382 3627.805899,1672.419717 3627.436058,1672.627427 3627.263792,1672.853421 3626.793742,1672.473429 3623.281333,1677.039167 3619.322469,1673.936463 3619.003786,1674.321172 3617.861772,1673.665387 3617.177871,1673.133918 3616.260939,1672.173191 3616.565803,1671.777632 3613.132032,1669.087198 3612.820370,1669.482893 3611.616283,1668.783849 3610.113293,1667.423209 3610.444454,1666.982615 3607.985213,1665.073727 3608.183552,1664.791575 3607.361017,1664.129373 3606.200950,1665.621403"/>
    <poly id="122072483" type="building.semidetached_house" color="255,230,230" fill="1" layer="-1.00" shape="3695.741664,1643.016302 3697.723225,1640.439642 3696.749144,1639.680328 3697.696858,1638.448496 3698.677513,1639.196552 3701.539934,1635.445039 3710.687762,1642.293493 3707.705885,1646.192046 3708.424213,1646.745089 3708.532125,1648.055871 3707.683918,1649.163310 3706.138993,1649.439106 3705.468694,1648.907352 3704.733367,1649.879006 3699.913458,1646.226059 3695.741664,1643.016302"/>
    <poly id="122072500" type="amenity.police" color="237,199,199" fill="1" layer="-1.00" shape="3781.263445,1664.454953 3758.704077,1694.137238 3718.511763,1668.907261 3720.745380,1666.014006 3741.027127,1639.748626 3781.263445,1664.454953"/>
    <poly id="122072508" type="building.apartments" color="255,230,230" fill="1" layer="-1.00" shape="3261.302925,1636.501421 3258.242135,1634.782858 3258.150557,1634.962732 3256.781697,1634.189208 3257.759774,1632.444847 3249.045001,1627.546785 3255.590983,1616.955685 3273.239554,1627.159123 3266.818443,1637.536273 3262.182628,1634.937071 3261.302925,1636.501421"/>
    <poly id="122072528" type="building.apartments" color="255,230,230" fill="1" layer="-1.00" shape="3577.626360,1636.186915 3586.898321,1624.161786 3592.591146,1628.609332 3593.842511,1629.630095 3584.432806,1641.568966 3583.203398,1640.625651 3577.626360,1636.186915"/>
    <poly id="122666824" type="amenity.parking" color="184,184,179" fill="1" layer="-1.00" shape="2304.225472,763.913142 2307.147292,766.446218 2311.765136,770.435769 2322.904629,780.056288 2320.355700,782.811956 2299.382145,805.993000 2287.759511,795.692508 2281.099146,789.597089 2298.818489,769.942620 2304.225472,763.913142"/>
    <poly id="122868959" type="landuse.grass" color="194,194,130" fill="1" layer="-3.00" shape="2208.208510,787.676570 2223.827231,791.464214 2229.730908,780.773542 2222.609949,774.442791 2219.472316,775.007403 2218.526366,776.984982 2219.618240,777.830631 2220.371761,778.761059 2220.795770,779.542423 2221.129128,780.548170 2221.273479,781.624527 2221.139532,783.062608 2220.604005,784.486616 2220.010014,785.377729 2219.404014,786.013172 2218.660454,786.573529 2217.765056,787.025710 2216.764505,787.324260 2215.535744,787.438302 2214.417579,787.305303 2213.362869,786.948477 2212.640845,786.562620 2211.825453,785.933876 2211.275891,785.333098 2210.855732,784.740811 2208.538715,785.522376 2208.208510,787.676570"/>
    <poly id="128648595" type="landuse.railway" color="194,194,130" fill="1" layer="-3.00" shape="2354.963394,918.633288 2320.656526,893.194481 2309.702813,886.006955 2311.180241,882.405196 2329.971784,891.391560 2349.399532,902.568151 2365.137425,912.573666 2359.791016,919.569878 2356.416307,916.834578 2354.963394,918.633288"/>
    <poly id="128648595#1" type="natural.grassland" color="140,196,107" fill="1" layer="-4.00" shape="2354.963394,918.633288 2320.656526,893.194481 2309.702813,886.006955 2311.180241,882.405196 2329.971784,891.391560 2349.399532,902.568151 2365.137425,912.573666 2359.791016,919.569878 2356.416307,916.834578 2354.963394,918.633288"/>
    <poly id="128648597" type="landuse.grass" color="194,194,130" fill="1" layer="-3.00" shape="2216.797852,882.457495 2259.639044,899.777308 2276.906652,906.402243 2265.228637,927.113249 2268.226635,937.066306 2265.227662,946.106668 2260.799577,944.750345 2253.333869,963.895760 2265.899464,968.413296 2267.685667,967.620309 2269.913314,967.129885 2303.507599,899.752198 2291.892584,893.156762 2285.610741,890.280399 2247.834722,876.540177 2213.779131,866.819106 2216.797852,882.457495"/>
    <poly id="128648598" type="landuse.railway" color="194,194,130" fill="1" layer="-3.00" shape="2269.795138,988.050623 2269.882143,988.983500 2270.445500,989.595130 2275.671022,989.700155 2309.103641,922.069877 2308.308251,920.417048 2306.633558,919.672257 2304.836490,918.929956 2303.954714,919.048042 2303.412180,919.459647 2269.795138,988.050623"/>
    <poly id="128648598#1" type="natural.grassland" color="140,196,107" fill="1" layer="-4.00" shape="2269.795138,988.050623 2269.882143,988.983500 2270.445500,989.595130 2275.671022,989.700155 2309.103641,922.069877 2308.308251,920.417048 2306.633558,919.672257 2304.836490,918.929956 2303.954714,919.048042 2303.412180,919.459647 2269.795138,988.050623"/>
    <poly id="128648599" type="landuse.railway" color="194,194,130" fill="1" layer="-3.00" shape="2739.004324,1205.361165 2794.525282,1261.338762 2784.989631,1271.034145 2729.371272,1214.613559 2739.004324,1205.361165"/>
    <poly id="128648599#1" type="natural.grassland" color="140,196,107" fill="1" layer="-4.00" shape="2739.004324,1205.361165 2794.525282,1261.338762 2784.989631,1271.034145 2729.371272,1214.613559 2739.004324,1205.361165"/>
    <poly id="128648600" type="landuse.grass" color="194,194,130" fill="1" layer="-3.00" shape="2039.069018,962.099138 2108.387644,996.424343 2111.215499,991.682302 2041.117931,956.849991 2039.069018,962.099138"/>
    <poly id="128648602" type="landuse.railway" color="194,194,130" fill="1" layer="-3.00" shape="2804.464680,1289.710923 2946.119672,1429.967244 2956.276059,1421.038490 2814.106580,1280.224835 2804.464680,1289.710923"/>
    <poly id="128648602#1" type="natural.grassland" color="140,196,107" fill="1" layer="-4.00" shape="2804.464680,1289.710923 2946.119672,1429.967244 2956.276059,1421.038490 2814.106580,1280.224835 2804.464680,1289.710923"/>
    <poly id="128648603" type="landuse.grass" color="194,194,130" fill="1" layer="-3.00" shape="2116.703585,1000.660977 2226.224687,1054.763885 2246.375954,1013.985534 2245.242902,1012.117057 2161.078080,1014.488220 2118.687943,993.243458 2116.393934,994.480799 2115.603065,995.720872 2115.297398,998.074856 2115.685162,999.747094 2116.703585,1000.660977"/>
    <poly id="128648603#1" type="leisure.park" color="207,245,201" fill="1" layer="-2.00" shape="2116.703585,1000.660977 2226.224687,1054.763885 2246.375954,1013.985534 2245.242902,1012.117057 2161.078080,1014.488220 2118.687943,993.243458 2116.393934,994.480799 2115.603065,995.720872 2115.297398,998.074856 2115.685162,999.747094 2116.703585,1000.660977"/>
    <poly id="128648604" type="landuse.railway" color="194,194,130" fill="1" layer="-3.00" shape="2556.671757,1051.649355 2565.757698,1043.587167 2577.685104,1050.866747 2588.903135,1058.717089 2609.702776,1076.565132 2643.500317,1110.227744 2681.171072,1148.106962 2671.083879,1157.435438 2614.744593,1101.141963 2580.702873,1068.530411 2569.192823,1059.695735 2556.671757,1051.649355"/>
    <poly id="128648604#1" type="natural.grassland" color="140,196,107" fill="1" layer="-4.00" shape="2556.671757,1051.649355 2565.757698,1043.587167 2577.685104,1050.866747 2588.903135,1058.717089 2609.702776,1076.565132 2643.500317,1110.227744 2681.171072,1148.106962 2671.083879,1157.435438 2614.744593,1101.141963 2580.702873,1068.530411 2569.192823,1059.695735 2556.671757,1051.649355"/>
    <poly id="128648612" type="landuse.railway" color="194,194,130" fill="1" layer="-3.00" shape="2181.572931,1179.158597 2261.860912,1017.586845 2259.003779,1016.220793 2256.074572,1015.657338 2176.089714,1176.744560 2176.216620,1177.965920 2179.651536,1179.987754 2180.698459,1179.966419 2181.572931,1179.158597"/>
    <poly id="128648612#1" type="natural.grassland" color="140,196,107" fill="1" layer="-4.00" shape="2181.572931,1179.158597 2261.860912,1017.586845 2259.003779,1016.220793 2256.074572,1015.657338 2176.089714,1176.744560 2176.216620,1177.965920 2179.651536,1179.987754 2180.698459,1179.966419 2181.572931,1179.158597"/>
    <poly id="129215054" type="leisure.pitch" color="207,245,201" fill="1" layer="-2.00" shape="2463.563521,1170.794256 2474.178588,1180.770672 2490.609926,1163.368383 2480.001657,1153.391794 2463.563521,1170.794256"/>
    <poly id="129215054#1" type="sport.beachvolleyball" color="79,230,125" fill="1" layer="-2.00" shape="2463.563521,1170.794256 2474.178588,1180.770672 2490.609926,1163.368383 2480.001657,1153.391794 2463.563521,1170.794256"/>
    <poly id="137482516" type="building.yes" color="255,230,230" fill="0" layer="-1.00" shape="2562.265365,671.835496 2563.528515,675.759851 2564.008184,679.956025 2564.047837,682.914935 2563.833648,686.101531 2563.112226,689.765747 2561.596944,693.190161"/>
    <poly id="137482517" type="building.yes" color="255,230,230" fill="0" layer="-1.00" shape="2549.604657,705.205692 2545.300181,706.928708 2541.206546,707.646041 2537.876690,707.791532 2535.186628,707.623614 2530.858091,706.821360 2527.520176,705.565051 2524.248239,703.873463 2521.201161,701.531958 2518.767106,699.233641 2516.616795,696.840549 2514.478839,692.711434 2513.009202,688.668889"/>
    <poly id="137482518" type="building.yes" color="255,230,230" fill="0" layer="-1.00" shape="2549.604657,705.205692 2548.668148,703.299776 2544.828951,701.808844 2542.408883,700.533893 2540.186005,698.921136 2538.377179,697.266594 2536.981728,695.536900 2534.996251,692.216933 2532.867487,686.529879 2513.009202,688.668889"/>
    <poly id="137482782" type="amenity.parking" color="184,184,179" fill="0" layer="-1.00" shape="3270.579622,629.047400 3282.798403,615.015196"/>
    <poly id="137482933" type="landuse.commercial" color="209,209,204" fill="0" layer="-3.00" shape="3240.084693,627.892921 3251.167771,637.494377"/>
    <poly id="137483015" type="landuse.residential" color="235,235,227" fill="0" layer="-3.00" shape="3252.749610,655.231823 3249.911388,652.774401 3246.367119,649.708118 3238.226071,642.651009 3225.280649,631.429253 3223.252229,629.667627 3209.289349,617.576290"/>
    <poly id="137483016" type="landuse.residential" color="235,235,227" fill="0" layer="-3.00" shape="3260.873386,645.910809 3252.749610,655.231823"/>
    <poly id="137483017" type="landuse.residential" color="235,235,227" fill="0" layer="-3.00" shape="3217.413111,608.255205 3209.289349,617.576290"/>
    <poly id="137483018" type="landuse.commercial" color="209,209,204" fill="0" layer="-3.00" shape="3217.413111,608.255205 3231.369197,620.346701 3240.084693,627.892921"/>
    <poly id="137483019" type="landuse.residential" color="235,235,227" fill="0" layer="-3.00" shape="3260.873386,645.910809 3296.712050,604.754205 3291.007949,599.817616 3293.022327,597.507184 3255.266086,564.787838 3217.413111,608.255205"/>
    <poly id="139110550" type="building.office" color="255,230,230" fill="1" layer="-1.00" shape="2846.753997,1243.101508 2833.862763,1255.690913 2834.973650,1256.814475 2833.013069,1258.734588 2831.874539,1257.589332 2821.885590,1267.405085 2831.592188,1277.233739 2850.273463,1296.015778 2851.692850,1294.573950 2859.669130,1286.456878 2861.394929,1284.697303 2844.961802,1267.449706 2847.509131,1264.950257 2857.852174,1254.482039 2855.983865,1252.561551 2847.816621,1244.192671 2846.753997,1243.101508"/>
    <poly id="142575660" type="building.university" color="255,230,230" fill="0" layer="-1.00" shape="2297.136644,1146.784916 2293.339890,1143.357265"/>