<?xml version="1.0" encoding="UTF-8"?>

<!-- generated on 2023-05-30 14:34:01 by Eclipse SUMO polyconvert Version 1.17.0
<configuration xmlns:xsi="http://www.w3.org/2001/XMLSchema-instance" xsi:noNamespaceSchemaLocation="http://sumo.dlr.de/xsd/polyconvertConfiguration.xsd">

    <input>
        <net-file value="glasgow.net.xml"/>
        <osm-files value="glasgow.osm"/>
        <type-file value="typemap.xml"/>
    </input>

    <output>
        <output-file value="glasgow.poly.xml"/>
    </output>

</configuration>
-->

<additional xmlns:xsi="http://www.w3.org/2001/XMLSchema-instance" xsi:noNamespaceSchemaLocation="http://sumo.dlr.de/xsd/additional_file.xsd">
    <location netOffset="-418985.53,-6190074.91" convBoundary="-1970.73,-996.05,13606.33,4151.06" origBoundary="-4.326099,55.841126,-4.076968,55.886808" projParameter="+proj=utm +zone=30 +ellps=WGS84 +datum=WGS84 +units=m +no_defs"/>

    <poly id="1000674571" type="landuse" color="194,194,130" fill="1" layer="-3.00" shape="3181.247001,2262.243165 3043.945032,2329.257147 3036.556177,2331.861523 3029.005672,2332.787872 3020.514831,2331.894368 3013.421765,2329.027580 3007.078143,2324.332767 2990.158459,2311.746575 3007.255477,2290.743934 3169.340959,2238.500849 3181.247001,2262.243165"/>
    <poly id="1000674572" type="landuse" color="194,194,130" fill="1" layer="-3.00" shape="3104.422510,2318.962400 3133.537403,2378.696870 3139.842323,2388.212769 3147.799165,2395.617265 3156.385690,2401.841580 3164.945637,2406.240722 3174.509204,2408.673719 3184.990869,2411.346274 3195.409324,2410.502240 3204.766682,2408.775596 3237.244844,2394.521896 3183.174267,2281.366902 3104.422510,2318.962400"/>
    <poly id="1000674573" type="landuse" color="194,194,130" fill="1" layer="-3.00" shape="3413.089967,2351.926091 3434.104231,2274.871648 3571.058558,2319.264166 3576.806315,2320.074212 3582.419577,2320.363463 3587.241556,2320.154792 3731.142605,2315.235421 3738.064271,2315.891146 3744.356251,2317.738118 3751.187517,2320.343591 3756.870448,2324.539184 3760.347716,2329.297340 3763.830234,2334.701066 3766.040771,2341.429938 3767.523071,2351.544821 3796.984164,2488.088686 3413.089967,2351.926091"/>
    <poly id="1003088427" type="leisure" color="207,245,201" fill="1" layer="-2.00" shape="3511.719441,433.393602 3514.782483,431.001085 3494.734289,401.358778 3481.650231,416.231529 3493.697071,429.485797 3494.167062,429.855879 3501.128421,436.410587 3509.439913,444.232475 3516.034628,437.991891 3511.719441,433.393602"/>
    <poly id="100613481" type="building" color="255,230,230" fill="1" layer="-1.00" shape="2002.749826,793.964756 2002.988871,798.146093 2005.671044,797.930199 2005.715563,798.998076 2009.548053,836.799840 2007.192930,838.468082 2005.061750,840.399415 2002.733589,843.202650 2001.206980,845.668436 1999.885132,848.375397 1982.671321,850.002957 1982.389186,847.236192 1980.332759,847.429554 1979.583788,838.292569 1976.934983,806.013055 1977.045246,804.163103 1977.418432,802.653452 1978.106000,801.215991 1979.303614,799.936209 1980.836013,798.817303 1982.262038,798.045435 1984.623535,797.412355 1992.439004,796.112059 1992.595989,797.166753 1994.443450,796.843622 1994.296142,795.632902 2002.749826,793.964756"/>
    <poly id="100613482" type="building" color="255,230,230" fill="1" layer="-1.00" shape="1957.646112,805.107032 1964.428713,876.574298 1946.928490,877.940057 1946.112075,871.286782 1918.520592,873.783064 1918.976458,880.576503 1901.201102,882.303700 1894.977012,811.304989 1957.646112,805.107032"/>
    <poly id="100613485" type="building" color="255,230,230" fill="1" layer="-1.00" shape="2029.898675,845.468121 2060.647242,843.037476 2060.400075,840.125352 2065.819488,839.625839 2061.837823,801.169959 2059.546601,799.475093 2057.377926,797.633277 2060.520403,794.158436 2059.072729,792.025176 2056.938388,790.349717 2054.526058,789.224801 2051.914499,788.849373 2047.925729,788.833011 2017.303448,792.029554 2017.499335,796.935270 2014.859556,797.072458 2014.830179,798.208475 2018.595940,835.788818 2021.501139,837.160767 2023.929856,838.841974 2026.428873,840.944923 2028.502466,843.066761 2029.898675,845.468121"/>
    <poly id="100616452" type="building" color="255,230,230" fill="1" layer="-1.00" shape="2034.297828,859.069364 2059.423969,859.401792 2061.457005,859.643048 2063.019443,860.516282 2064.517693,861.646726 2065.737553,863.305455 2066.695541,865.024617 2067.146767,867.109242 2067.648511,887.772538 2067.952734,894.847054 2026.425568,895.370170 2026.185128,884.242382 2025.069787,884.195923 2024.710715,867.248172 2025.809890,867.094546 2026.085111,865.018945 2026.857675,863.435224 2028.066555,861.743359 2029.948818,860.239598 2032.142071,859.309042 2034.297828,859.069364"/>
    <poly id="100616654" type="building" color="255,230,230" fill="1" layer="-1.00" shape="2013.890184,1192.683094 2009.157014,1167.276722 1966.452546,1175.191458 1968.402925,1185.664649 1966.568187,1186.332661 1969.134911,1200.390301 2008.093531,1193.757305 2013.890184,1192.683094"/>
    <poly id="100616656" type="building" color="255,230,230" fill="1" layer="-1.00" shape="1964.370117,1174.294353 1966.568187,1186.332661 1969.134911,1200.390301 1941.073585,1205.500000 1936.308626,1179.404081 1964.370117,1174.294353"/>
    <poly id="100617617" type="amenity" color="237,199,199" fill="1" layer="-1.00" shape="2517.150230,1372.157985 2538.331426,1367.432678 2538.399252,1367.720885 2539.085258,1367.574872 2539.158536,1367.818451 2540.903837,1367.397209 2540.849939,1367.186675 2544.260392,1366.412437 2544.334073,1366.678274 2546.135095,1366.222628 2546.026696,1365.768174 2546.786998,1365.576287 2546.562529,1364.589592 2545.821002,1364.781139 2545.142546,1361.887938 2544.979644,1361.189564 2545.553202,1361.056721 2545.403623,1360.402634 2546.213993,1360.209840 2545.901714,1358.868508 2545.078827,1359.061528 2544.956902,1358.551658 2544.589066,1358.636246 2543.781014,1355.155390 2544.198918,1355.069895 2544.062863,1354.471223 2544.854661,1354.289898 2544.501806,1352.782318 2543.691435,1352.975112 2543.522072,1352.265723 2543.110628,1352.362233 2542.994961,1351.852250 2542.356471,1349.091912 2543.234477,1348.831100 2542.937334,1347.634211 2542.083152,1347.827798 2541.860294,1346.930132 2540.084499,1347.396454 2540.089943,1347.696924 2536.974429,1348.510350 2536.904385,1348.099729 2534.958807,1348.524601 2535.055900,1349.046053 2534.306702,1349.159815 2534.333138,1349.582358 2513.342233,1354.448952 2514.382651,1359.350507 2513.144282,1359.762573 2512.208933,1360.658963 2511.697342,1361.447484 2511.374304,1362.622214 2511.414860,1363.823751 2512.047136,1365.203811 2512.934198,1366.133969 2513.912118,1366.550401 2515.330554,1366.747340 2516.060974,1366.633914 2517.150230,1372.157985"/>
    <poly id="100617617#1" type="building" color="255,230,230" fill="1" layer="-1.00" shape="2517.150230,1372.157985 2538.331426,1367.432678 2538.399252,1367.720885 2539.085258,1367.574872 2539.158536,1367.818451 2540.903837,1367.397209 2540.849939,1367.186675 2544.260392,1366.412437 2544.334073,1366.678274 2546.135095,1366.222628 2546.026696,1365.768174 2546.786998,1365.576287 2546.562529,1364.589592 2545.821002,1364.781139 2545.142546,1361.887938 2544.979644,1361.189564 2545.553202,1361.056721 2545.403623,1360.402634 2546.213993,1360.209840 2545.901714,1358.868508 2545.078827,1359.061528 2544.956902,1358.551658 2544.589066,1358.636246 2543.781014,1355.155390 2544.198918,1355.069895 2544.062863,1354.471223 2544.854661,1354.289898 2544.501806,1352.782318 2543.691435,1352.975112 2543.522072,1352.265723 2543.110628,1352.362233 2542.994961,1351.852250 2542.356471,1349.091912 2543.234477,1348.831100 2542.937334,1347.634211 2542.083152,1347.827798 2541.860294,1346.930132 2540.084499,1347.396454 2540.089943,1347.696924 2536.974429,1348.510350 2536.904385,1348.099729 2534.958807,1348.524601 2535.055900,1349.046053 2534.306702,1349.159815 2534.333138,1349.582358 2513.342233,1354.448952 2514.382651,1359.350507 2513.144282,1359.762573 2512.208933,1360.658963 2511.697342,1361.447484 2511.374304,1362.622214 2511.414860,1363.823751 2512.047136,1365.203811 2512.934198,1366.133969 2513.912118,1366.550401 2515.330554,1366.747340 2516.060974,1366.633914 2517.150230,1372.157985"/>
    <poly id="100617618" type="building" color="255,230,230" fill="1" layer="-1.00" shape="1928.338355,1148.179082 1957.105324,1143.635307 1961.181692,1169.398713 1930.404668,1174.257464 1926.321860,1148.494199 1928.338355,1148.179082"/>
    <poly id="100618051" type="building" color="255,230,230" fill="1" layer="-1.00" shape="2407.949285,1380.116147 2445.565129,1371.652354 2442.091558,1355.484679 2404.290047,1364.074322 2407.949285,1380.116147"/>
    <poly id="100618054" type="building" color="255,230,230" fill="1" layer="-1.00" shape="2445.565129,1371.652354 2459.347181,1368.697292 2454.533786,1346.308769 2440.751463,1349.252717 2442.091558,1355.484679 2445.565129,1371.652354"/>
    <poly id="100618055" type="building" color="255,230,230" fill="1" layer="-1.00" shape="2386.847421,1385.408397 2407.949285,1380.116147 2404.290047,1364.074322 2402.775072,1358.558001 2381.509378,1363.797587 2386.847421,1385.408397"/>
    <poly id="100618693" type="building" color="255,230,230" fill="1" layer="-1.00" shape="2474.555492,1353.593505 2493.646009,1349.228719 2491.931328,1340.287288 2491.828979,1339.821593 2472.512108,1344.134829 2474.555492,1353.593505"/>
    <poly id="100618697" type="building" color="255,230,230" fill="1" layer="-1.00" shape="2476.663473,1362.817235 2495.645339,1358.331973 2494.022689,1351.704360 2493.646009,1349.228719 2474.555492,1353.593505 2476.663473,1362.817235"/>
    <poly id="100619258" type="building" color="255,230,230" fill="1" layer="-1.00" shape="2304.827987,1401.881803 2283.159247,1406.973353 2275.392853,1374.063120 2297.055492,1368.971647 2299.090142,1377.584364 2304.827987,1401.881803"/>
    <poly id="100664842" type="building" color="255,230,230" fill="1" layer="-1.00" shape="2304.827987,1401.881803 2319.898670,1398.535517 2341.703363,1393.686591 2337.716805,1376.181315 2332.598057,1377.342974 2332.006479,1374.759926 2325.578519,1376.223677 2323.231566,1365.924534 2319.746249,1366.711438 2319.372317,1365.081804 2310.051156,1367.188143 2310.452551,1368.950864 2308.488630,1369.398436 2310.250487,1377.125541 2305.892441,1378.117561 2305.443192,1376.133066 2299.090142,1377.584364 2304.827987,1401.881803"/>
    <poly id="100664843" type="building" color="255,230,230" fill="1" layer="-1.00" shape="2341.703363,1393.686591 2370.018424,1387.428246 2362.436574,1353.957917 2334.136244,1360.349624 2337.716805,1376.181315 2341.703363,1393.686591"/>
    <poly id="100664845" type="building" color="255,230,230" fill="1" layer="-1.00" shape="2301.745262,1361.772977 2321.320714,1357.231632 2314.291028,1324.541730 2295.296854,1328.694046 2301.745262,1361.772977"/>
    <poly id="100664846" type="building" color="255,230,230" fill="1" layer="-1.00" shape="2301.745262,1361.772977 2277.764954,1367.140327 2269.804841,1333.910792 2295.296854,1328.694046 2301.745262,1361.772977"/>
    <poly id="100664848" type="building" color="255,230,230" fill="1" layer="-1.00" shape="2321.320714,1357.231632 2360.522623,1348.883008 2353.154861,1316.176925 2314.291028,1324.541730 2321.320714,1357.231632"/>
    <poly id="1010368441" type="building" color="255,230,230" fill="1" layer="-1.00" shape="2041.944828,1598.251239 2039.833167,1588.871912 2043.661238,1588.011734 2042.817061,1584.286711 2038.720904,1585.207439 2035.389805,1570.406710 2052.162706,1566.727865 2055.534747,1581.717107 2048.871198,1583.285764 2049.579657,1586.434388 2055.949477,1584.893351 2058.169550,1594.727128 2041.944828,1598.251239"/>
    <poly id="1010368442" type="building" color="255,230,230" fill="1" layer="-1.00" shape="2058.169550,1594.727128 2055.949477,1584.893351 2062.202830,1583.488032 2061.501246,1580.372677 2055.534747,1581.717107 2052.162706,1566.727865 2068.129755,1563.141699 2071.426818,1577.798352 2074.417099,1591.080208 2058.169550,1594.727128"/>
    <poly id="1014867603" type="building" color="255,230,230" fill="1" layer="-1.00" shape="1660.174075,1858.285942 1655.775026,1839.241399 1662.314120,1837.741196 1666.719399,1856.785631 1660.174075,1858.285942"/>
    <poly id="1014867604" type="landuse" color="194,194,130" fill="1" layer="-3.00" shape="1874.601303,1773.520554 1958.283003,1754.603873 1974.449831,1825.810888 1890.757145,1844.738626 1874.601303,1773.520554"/>
    <poly id="101513463" type="parking" color="184,184,179" fill="1" layer="-1.00" shape="3530.347850,1360.417610 3524.078180,1294.104647 3566.464411,1285.843631 3570.309600,1338.440736 3572.333669,1355.358702 3566.051118,1355.871776 3530.347850,1360.417610"/>
    <poly id="101513464" type="building" color="255,230,230" fill="1" layer="-1.00" shape="3481.540752,1387.651666 3480.927616,1378.578861 3494.346171,1377.670786 3492.062901,1343.836722 3502.155261,1343.166313 3504.669158,1380.447198 3501.455135,1380.660557 3501.837522,1386.286547 3481.540752,1387.651666"/>
    <poly id="101513466" type="building" color="255,230,230" fill="1" layer="-1.00" shape="3408.971456,1412.172682 3403.671788,1386.474583 3412.129642,1384.731169 3412.971732,1384.560234 3418.265088,1410.258456 3414.042343,1411.124479 3408.971456,1412.172682"/>
    <poly id="101513467" type="building" color="255,230,230" fill="1" layer="-1.00" shape="3252.638377,1418.827961 3249.284978,1403.603789 3323.377073,1386.533535 3322.497233,1381.807044 3330.978321,1378.916448 3339.957679,1376.929767 3341.984183,1377.873054 3344.065488,1378.381208 3344.421234,1381.113324 3344.087580,1382.755724 3343.728781,1386.836503 3342.979677,1396.033911 3339.310970,1398.470829 3329.702971,1399.611616 3327.150885,1400.080404 3328.304331,1406.449540 3264.633274,1419.180389 3253.336923,1421.821088 3252.638377,1418.827961"/>
    <poly id="101513468" type="residential" color="235,235,227" fill="1" layer="-3.00" shape="3364.890627,1454.685705 3355.518831,1419.409130 3358.979973,1384.091749 3362.251998,1359.175136 3363.025239,1350.622963 3359.224404,1325.087289 3368.781411,1322.489183 3387.721017,1317.340689 3390.712033,1328.786539 3413.428822,1371.983919 3425.762979,1406.650941 3434.143019,1448.802780 3364.890627,1454.685705"/>
    <poly id="101513469" type="building" color="255,230,230" fill="1" layer="-1.00" shape="3429.936530,1375.773707 3428.058683,1357.962607 3458.458678,1354.779929 3457.018052,1341.102127 3470.958928,1339.639158 3476.091731,1388.561841 3468.143429,1389.394309 3467.696490,1385.060797 3464.334661,1385.410415 3464.696425,1388.832620 3451.124356,1390.255613 3450.166745,1381.177847 3447.192336,1381.487144 3448.407374,1393.053888 3438.446879,1394.089423 3437.496098,1385.044932 3436.447613,1375.089361 3429.936530,1375.773707"/>
    <poly id="101513470" type="building" color="255,230,230" fill="1" layer="-1.00" shape="3454.973354,1318.162115 3453.489053,1305.542644 3507.410360,1299.223023 3508.894704,1311.853640 3454.973354,1318.162115"/>
    <poly id="101513471" type="building" color="255,230,230" fill="1" layer="-1.00" shape="3395.020367,1373.571654 3392.425540,1361.873796 3399.764976,1360.250589 3401.330057,1359.899717 3403.931119,1371.597467 3395.020367,1373.571654"/>
    <poly id="101513472" type="building" color="255,230,230" fill="1" layer="-1.00" shape="3213.459871,1588.850728 3221.471842,1529.539701 3248.763366,1533.213057 3249.051031,1531.103925 3283.308054,1535.710001 3278.545017,1570.995174 3227.886788,1590.795779 3213.459871,1588.850728"/>
    <poly id="101513473" type="building" color="255,230,230" fill="1" layer="-1.00" shape="3374.835159,1422.380240 3364.091261,1369.929162 3373.291889,1368.061037 3384.035480,1420.501008 3374.835159,1422.380240"/>
    <poly id="101513475" type="building" color="255,230,230" fill="1" layer="-1.00" shape="3435.829353,1241.982969 3436.309850,1234.204171 3411.476050,1235.016322 3363.981969,1246.131159 3365.277118,1253.421726 3412.531821,1242.578359 3435.829353,1241.982969"/>
    <poly id="101513477" type="landuse" color="194,194,130" fill="1" layer="-3.00" shape="3230.648488,1423.163530 3229.758079,1416.110635 3233.587710,1406.601849 3229.776983,1400.080072 3226.875722,1388.076105 3229.295073,1382.655857 3227.879978,1378.807297 3225.477194,1368.764762 3226.295400,1363.428926 3253.580406,1355.870169 3251.917772,1347.996226 3292.340741,1338.532082 3297.844872,1343.832397 3304.076078,1351.624397 3312.935222,1357.243038 3317.562235,1375.772905 3320.077851,1385.835725 3245.817978,1402.975840 3249.079982,1419.036558 3230.648488,1423.163530"/>
    <poly id="101513479" type="building" color="255,230,230" fill="1" layer="-1.00" shape="3219.077587,1448.162507 3214.292068,1427.798784 3228.019737,1424.591114 3252.638377,1418.827961 3253.336923,1421.821088 3264.633274,1419.180389 3268.713771,1436.551149 3225.324215,1446.703342 3219.077587,1448.162507"/>
    <poly id="101513480" type="building" color="255,230,230" fill="1" layer="-1.00" shape="3439.115349,1343.671370 3434.799115,1304.363352 3389.224616,1309.365435 3390.301720,1319.164636 3402.279481,1317.847946 3401.920655,1314.592673 3409.993458,1313.713328 3410.270476,1316.246481 3426.166139,1314.514578 3427.647090,1327.991272 3430.658687,1327.659032 3431.533432,1335.602807 3428.321769,1335.949762 3429.286966,1344.749086 3439.115349,1343.671370"/>
    <poly id="101513481" type="building" color="255,230,230" fill="1" layer="-1.00" shape="3440.181168,1282.926766 3439.114728,1275.465103 3490.398615,1267.979113 3491.468353,1275.629973 3440.181168,1282.926766"/>
    <poly id="101513482" type="building" color="255,230,230" fill="1" layer="-1.00" shape="3164.263037,1422.775330 3207.267599,1411.048686 3224.006046,1407.464095 3225.792301,1417.339587 3228.019737,1424.591114 3214.292068,1427.798784 3214.783939,1427.300137 3213.649007,1423.713720 3211.822913,1424.169538 3212.371968,1433.477245 3199.081170,1433.471073 3199.207724,1437.031072 3198.136066,1439.755424 3195.113819,1442.626139 3191.313170,1442.939325 3188.214293,1441.892922 3185.543217,1439.569774 3184.501359,1436.983581 3184.508136,1432.831185 3167.086120,1435.994064 3164.263037,1422.775330"/>
    <poly id="101513483" type="building" color="255,230,230" fill="1" layer="-1.00" shape="3421.175997,1446.597107 3414.042343,1411.124479 3418.265088,1410.258456 3422.618861,1409.367827 3429.920823,1444.804056 3421.175997,1446.597107"/>
    <poly id="101513484" type="building" color="255,230,230" fill="1" layer="-1.00" shape="3498.937718,1279.158766 3497.086842,1265.989239 3499.784762,1265.618133 3496.563062,1242.665774 3506.192696,1241.313471 3509.479633,1264.765612 3511.203211,1264.523266 3512.982498,1277.193135 3498.937718,1279.158766"/>
    <poly id="101513485" type="building" color="255,230,230" fill="1" layer="-1.00" shape="3390.099726,1362.394152 3387.266691,1349.631886 3394.344289,1348.069022 3396.932168,1347.499445 3399.764976,1360.250589 3392.425540,1361.873796 3390.099726,1362.394152"/>
    <poly id="101513486" type="building" color="255,230,230" fill="1" layer="-1.00" shape="3114.755756,1447.120701 3111.260527,1429.605960 3105.334627,1402.950948 3115.868173,1400.713204 3121.535017,1427.239301 3163.326046,1418.361592 3164.263037,1422.775330 3167.086120,1435.994064 3114.755756,1447.120701"/>
    <poly id="101513487" type="building" color="255,230,230" fill="1" layer="-1.00" shape="3370.683525,1449.216199 3368.501668,1439.603785 3406.847479,1430.946039 3409.029254,1440.558471 3370.683525,1449.216199"/>
    <poly id="101513488" type="building" color="255,230,230" fill="1" layer="-1.00" shape="3485.322510,1427.904384 3483.606226,1396.720742 3474.018529,1397.248579 3474.686659,1409.392855 3476.125083,1409.311447 3476.543557,1416.951697 3474.961194,1417.035682 3475.590941,1428.434795 3485.322510,1427.904384"/>
    <poly id="101513489" type="building" color="255,230,230" fill="1" layer="-1.00" shape="3442.515001,1241.596078 3487.821504,1247.464281 3488.735160,1240.445853 3443.428586,1234.577639 3442.515001,1241.596078"/>
    <poly id="101513490" type="parking" color="184,184,179" fill="1" layer="-1.00" shape="3546.687645,1431.136900 3541.003186,1399.278363 3537.439504,1399.542478 3536.214845,1390.224567 3565.113603,1388.872881 3569.266975,1388.676172 3575.227145,1430.715662 3546.687645,1431.136900"/>
    <poly id="101513491" type="amenity" color="237,199,199" fill="1" layer="-1.00" shape="3427.417271,1530.465786 3430.170346,1504.523237 3407.170128,1482.849188 3381.040325,1472.396831 3363.855925,1471.001635 3352.445546,1470.070720 3351.536558,1481.174581 3347.919167,1480.883212 3346.377714,1499.657295 3349.863468,1499.939891 3349.101865,1509.137523 3348.998649,1510.363904 3340.020941,1509.634314 3338.445780,1528.620516 3344.752679,1529.130821 3343.209270,1547.793622 3347.760866,1548.168425 3351.739866,1550.824445 3427.417271,1530.465786"/>
    <poly id="101513491#1" type="building" color="255,230,230" fill="1" layer="-1.00" shape="3427.417271,1530.465786 3430.170346,1504.523237 3407.170128,1482.849188 3381.040325,1472.396831 3363.855925,1471.001635 3352.445546,1470.070720 3351.536558,1481.174581 3347.919167,1480.883212 3346.377714,1499.657295 3349.863468,1499.939891 3349.101865,1509.137523 3348.998649,1510.363904 3340.020941,1509.634314 3338.445780,1528.620516 3344.752679,1529.130821 3343.209270,1547.793622 3347.760866,1548.168425 3351.739866,1550.824445 3427.417271,1530.465786"/>
    <poly id="101513492" type="building" color="255,230,230" fill="1" layer="-1.00" shape="3391.580287,1290.944148 3390.306912,1283.118844 3431.565095,1276.546531 3432.845174,1284.750216 3391.580287,1290.944148"/>
    <poly id="101513493" type="building" color="255,230,230" fill="1" layer="-1.00" shape="3386.942853,1389.902453 3385.050614,1380.730125 3402.141173,1377.217845 3401.311331,1373.180633 3409.407419,1371.510488 3412.129642,1384.731169 3403.671788,1386.474583 3386.942853,1389.902453"/>
    <poly id="101513494" type="building" color="255,230,230" fill="1" layer="-1.00" shape="3279.889514,1569.868968 3284.736860,1530.908692 3292.027426,1531.813156 3293.165791,1522.686675 3311.517692,1524.962342 3309.815949,1538.629687 3308.726691,1547.354527 3312.811326,1547.871255 3311.251341,1560.367187 3279.889514,1569.868968"/>
    <poly id="101513495" type="building" color="255,230,230" fill="1" layer="-1.00" shape="3394.344289,1348.069022 3391.314409,1334.453110 3389.643126,1334.817020 3381.025454,1336.730321 3384.049106,1350.346339 3387.266691,1349.631886 3394.344289,1348.069022"/>
    <poly id="101513496" type="building" color="255,230,230" fill="1" layer="-1.00" shape="3441.151621,1450.736700 3439.931827,1441.351931 3449.113194,1440.163366 3449.359653,1442.040275 3456.948343,1441.058360 3456.614235,1438.481698 3479.898780,1435.471088 3480.174641,1437.592379 3486.451689,1436.778709 3486.175831,1434.657418 3496.219277,1433.364468 3497.461310,1442.949229 3487.767754,1444.202518 3487.571493,1442.680936 3480.944786,1443.545391 3481.272023,1446.088781 3457.906376,1449.111968 3457.608741,1446.824088 3450.994362,1447.677236 3451.226111,1449.431956 3441.151621,1450.736700"/>
    <poly id="101513497" type="building" color="255,230,230" fill="1" layer="-1.00" shape="3389.643126,1334.817020 3386.286094,1319.715273 3375.991047,1322.003737 3379.347913,1337.094348 3381.025454,1336.730321 3389.643126,1334.817020"/>
    <poly id="101519059" type="unknown" color="51,128,255" fill="0" layer="-1.00" shape="3140.000559,1366.159398 3138.378759,1359.175328 3150.704052,1356.304327 3151.142512,1357.710224 3161.115448,1354.926065 3161.394044,1356.145589 3167.499903,1354.510760"/>
    <poly id="101519065" type="landuse" color="194,194,130" fill="1" layer="-3.00" shape="3088.828365,1315.382118 3086.175752,1303.652065 3117.718452,1296.461152 3115.678280,1303.466536 3088.828365,1315.382118"/>
    <poly id="101519067" type="water" color="181,209,209" fill="1" layer="-4.00" shape="3135.141636,1357.407859 3134.179913,1353.361930 3148.470425,1352.548429 3148.168934,1354.234796 3135.141636,1357.407859"/>
    <poly id="101519087" type="leisure" color="207,245,201" fill="1" layer="-2.00" shape="3179.424455,1315.746016 3180.691609,1305.782281 3194.317316,1306.984658 3193.283294,1317.033256 3179.424455,1315.746016"/>
    <poly id="101519089" type="unknown" color="51,128,255" fill="0" layer="-1.00" shape="3117.384272,1376.751910 3120.195244,1387.198939"/>
    <poly id="101519092" type="landuse" color="194,194,130" fill="1" layer="-3.00" shape="3099.613575,1367.152797 3095.584825,1348.523321 3142.173573,1338.334601 3140.490913,1342.940145 3143.170157,1343.971795 3140.094353,1349.437291 3132.816680,1350.313978 3134.590894,1357.417760 3110.128502,1363.178768 3103.717052,1365.921253 3099.613575,1367.152797"/>
    <poly id="101519096" type="building" color="255,230,230" fill="1" layer="-1.00" shape="3134.698501,1382.207024 3134.175734,1380.290569 3138.492993,1379.110874 3139.022217,1381.038347 3134.698501,1382.207024"/>
    <poly id="101519099" type="unknown" color="51,128,255" fill="0" layer="-1.00" shape="3138.238146,1317.922275 3150.613883,1314.716408"/>
    <poly id="101519102" type="building" color="255,230,230" fill="1" layer="-1.00" shape="3121.491985,1386.897319 3120.560381,1383.830477 3126.033690,1382.184699 3130.199543,1380.940926 3132.914196,1380.112872 3139.097369,1378.253969 3140.022703,1381.320928 3133.839733,1383.190957 3131.155974,1383.996191 3126.965290,1385.251542 3121.491985,1386.897319"/>
    <poly id="101519103" type="unknown" color="51,128,255" fill="0" layer="-1.00" shape="3087.578111,1316.528951 3085.061443,1302.959656 3113.299742,1296.529478"/>
    <poly id="101519104" type="building" color="255,230,230" fill="1" layer="-1.00" shape="3189.034479,1364.888565 3189.838512,1354.933154 3191.092397,1355.033080 3190.288560,1364.999620 3189.034479,1364.888565"/>
    <poly id="101519105" type="unknown" color="51,128,255" fill="0" layer="-1.00" shape="3154.615030,1313.709395 3170.814388,1310.067506"/>
    <poly id="101519106" type="unknown" color="51,128,255" fill="0" layer="-1.00" shape="3114.382534,1377.629665 3117.527463,1387.848046"/>
    <poly id="101519112" type="unknown" color="51,128,255" fill="0" layer="-1.00" shape="3114.914207,1388.395984 3111.654766,1378.424571 3114.382534,1377.629665 3117.384272,1376.751910 3143.160345,1369.197321 3168.903753,1361.910645"/>
    <poly id="101519117" type="building" color="255,230,230" fill="1" layer="-1.00" shape="3121.998824,1386.186883 3121.386633,1384.171848 3125.819793,1382.823075 3126.438240,1384.837998 3121.998824,1386.186883"/>
    <poly id="101521144" type="building" color="255,230,230" fill="1" layer="-1.00" shape="2948.526253,1381.862244 2947.456445,1377.039052 2928.213439,1381.293258 2933.501623,1405.154257 2952.750985,1400.911089 2958.992748,1399.529552 2954.774501,1380.491717 2948.526253,1381.862244"/>
    <poly id="101521146" type="building" color="255,230,230" fill="1" layer="-1.00" shape="3047.404301,1341.219254 3046.640261,1337.726390 3057.204031,1335.421170 3057.968063,1338.914036 3047.404301,1341.219254"/>
    <poly id="101521147" type="building" color="255,230,230" fill="1" layer="-1.00" shape="3015.272809,1297.258103 3012.982147,1287.213654 3018.737128,1285.907766 3017.194218,1279.144957 3042.539836,1273.389802 3045.190779,1285.019671 3034.522700,1287.449248 3035.698774,1292.615641 3015.272809,1297.258103"/>
    <poly id="101521149" type="building" color="255,230,230" fill="1" layer="-1.00" shape="2894.598909,1456.495679 2927.321217,1449.181879 2920.901833,1420.565599 2919.125359,1412.660424 2931.390193,1409.923467 2924.821269,1380.653083 2897.105461,1386.852447 2901.142377,1404.847083 2883.870753,1408.709715 2894.598909,1456.495679"/>
    <poly id="101521150" type="building" color="255,230,230" fill="1" layer="-1.00" shape="2965.798787,1337.734992 2961.088520,1317.102991 2951.252202,1273.965169 3000.602827,1262.756678 3055.652606,1250.255056 3057.515051,1258.425905 3075.288564,1336.353687 3065.462284,1338.589931 3066.733338,1344.166511 3001.409528,1359.001536 2997.909056,1343.657731 2985.675889,1346.427319 2982.814164,1333.877312 2965.798787,1337.734992"/>
    <poly id="101521152" type="building" color="255,230,230" fill="1" layer="-1.00" shape="3046.536021,1443.238422 3029.271990,1367.539125 3004.631538,1373.136957 3002.082421,1361.950560 3001.409528,1359.001536 3066.733338,1344.166511 3065.462284,1338.589931 3075.288564,1336.353687 3078.612232,1350.932613 3089.140540,1397.119574 3084.427032,1398.195125 3087.472216,1411.565667 3085.221362,1412.073708 3086.397549,1417.251243 3079.052856,1418.919610 3082.723062,1435.017403 3046.536021,1443.238422"/>
    <poly id="101521153" type="building" color="255,230,230" fill="1" layer="-1.00" shape="3017.675611,1346.563495 3010.511516,1315.155215 3022.632334,1312.398855 3029.796344,1343.807154 3017.675611,1346.563495"/>
    <poly id="101521155" type="building" color="255,230,230" fill="1" layer="-1.00" shape="2981.294140,1378.433156 2975.395951,1379.775073 2967.857904,1346.737171 2965.798787,1337.734992 2982.814164,1333.877312 2985.675889,1346.427319 2989.849504,1364.731265 3002.082421,1361.950560 3004.631538,1373.136957 2981.294140,1378.433156"/>
    <poly id="101521156" type="building" color="255,230,230" fill="1" layer="-1.00" shape="2985.402159,1330.535589 2983.440958,1321.754281 2994.546220,1319.272173 2996.513857,1328.064502 2985.402159,1330.535589"/>
    <poly id="101521157" type="building" color="255,230,230" fill="1" layer="-1.00" shape="2978.996845,1439.612124 2975.653605,1411.452436 2987.185557,1409.385636 2981.294140,1378.433156 3004.631538,1373.136957 3012.032538,1406.578140 3033.319727,1401.118633 3035.853866,1401.740941 3037.293152,1404.141833 3044.184167,1434.308271 3000.458599,1443.856510 2999.163673,1439.738685 2997.643133,1434.912467 2978.996845,1439.612124"/>
    <poly id="101521158" type="building" color="255,230,230" fill="1" layer="-1.00" shape="3043.588204,1326.070343 3039.806820,1307.981933 3054.027326,1305.009754 3057.808853,1323.109305 3043.588204,1326.070343"/>