<?xml version="1.0" encoding="UTF-8"?>

<!-- generated on 2023-06-01 14:31:28.625188 by randomTrips.py v1_17_0+0000-737931d58da
<configuration>
    <net-file value="glasgow.net.xml"/>
    <output-trip-file value="passenger_trips.xml"/>
    <route-file value="passenger_routes.rou.xml"/>
    <trip-attributes value="color=&quot;255,255,255&quot;"/>
    <end value="600"/>
    <vehicle-class value="passenger"/>
    <period value="0.1"/>
</configuration>
-->

<!-- generated on 2023-06-01 14:31:24 by Eclipse SUMO duarouter Version 1.17.0
<configuration xmlns:xsi="http://www.w3.org/2001/XMLSchema-instance" xsi:noNamespaceSchemaLocation="http://sumo.dlr.de/xsd/duarouterConfiguration.xsd">

    <input>
        <net-file value="glasgow.net.xml"/>
        <route-files value="passenger_trips.xml"/>
    </input>

    <output>
        <output-file value="passenger_routes.rou.xml"/>
        <alternatives-output value="NUL"/>
    </output>

    <time>
        <begin value="0"/>
        <end value="600"/>
    </time>

    <report>
        <no-warnings value="true"/>
        <ignore-errors value="true"/>
        <no-step-log value="true"/>
    </report>

</configuration>
-->

<routes xmlns:xsi="http://www.w3.org/2001/XMLSchema-instance" xsi:noNamespaceSchemaLocation="http://sumo.dlr.de/xsd/routes_file.xsd">
    <vType id="passenger" vClass="passenger" color="white"/>
    <vehicle id="0" type="passenger" depart="0.00">
        <route edges="45051125#1 45051125#2 4570715 199863044#0 199863044#1 199863044#2 209263691#0 209263691#2 209263691#3 209263691#4 -1136445706#1 -1136445706#0 4827884#0 4827884#1 4827884#2 1136445711 1136445714 219273311#0 219273311#1 219273311#3 219273311#4 384212608#2 384212608#3 210429351#0 210429351#1 -4839472#1 -4839472#0 20279759#0 20279759#1 20279759#2 20279759#3 20279759#4 45073629#0 45073629#2 45073629#3 -121929398"/>
    </vehicle>
    <vehicle id="1" type="passenger" depart="0.10">
        <route edges="-77670348#0 26410601#2 4717604 380618974#4 380618974#5 380618974#6 730447301#0 730447301#1 380618973#0 151952407 735349188 735349186 380808600#1 995103496 588506827 466695357#0 466695357#1 466695357#2 389802136 389802137 203957021#1 203957021#2 203957021#3 389802951#0 389802951#1 389802951#2 69067227 4876190#0 4876190#1 4876190#2 4876190#3 4876189 1058909732 4296031#0 4296031#1 4799422 380554725 69067201 736368181 4798872 4798873 4764320#0 4764320#1 417402319 4829972 -4764316#2 -4764316#1 4865968#0 4865968#1 4865968#2 4865968#3 -4865968#3"/>
    </vehicle>
    <vehicle id="3" type="passenger" depart="0.30">
        <route edges="554903307#0 554903307#1 554903307#2 554903307#3 -554903307#3 -554903307#2 -554903307#1 -554903307#0 -1039370199 -250478229#5 -250478229#4 -250478229#2 -250478229#1 -250478229#0 -20279843 -250478226 -20279749 -20279748 -732295445#7 -732295445#6 -732295445#5 -732295445#4 -732295445#3 20279755#0 20279755#1 20279755#2 -4839473#2 -4839473#1 -4839473#0 -485899794#4 -485899794#3 -485899794#2 -485899794#1 -485899794#0 -45359877#13 -45359877#12 -45359877#11 -45359877#10 -45359877#9 -45359877#8 -45359877#7 -45359877#6 -45359877#4 -45359877#3 23605430#0 23605430#1 23605430#2 -23605430#2"/>
    </vehicle>
    <vehicle id="5" type="passenger" depart="0.50">
        <route edges="-485899794#0 -45359877#13 -45359877#12 -45359877#11 -45359877#10 -45359877#9 -45359877#8 -45359877#7 -45359877#6 -45359877#4 -45359877#3 -45359877#2 -45359877#1 -45359877#0 -96646975#2 -96646975#1 -96646975#0 -4839478#3 -4839478#2 -4839478#0 24324676#0 24324676#1 -156536760#2 -156536760#1 -1097150695#2 -1097150695#1 -4475203#0 -685023881#3 -685023881#1 -685023881#0 -4494913#12 -4494913#11 -4494913#10 -4494913#9 -4494913#8 -4494913#7 -4494913#6 -4494913#5 -4494913#4 -4494913#3 -4494913#2 -4494913#1 -4494913#0 595233510 983637050#0 983637050#1 983637050#2 8119016#0 8119016#1 114002811#0 114002811#1 114002811#2 156536765 -28891695#2 25739963#3 25739963#4"/>
    </vehicle>
    <vehicle id="6" type="passenger" depart="0.60">
        <route edges="-122443237#0 122443237#0 122443237#1 122443237#2 -4475215#2 -4475215#1 -4475215#0 -4494913#12 -4494913#11 -4494913#10 -4494913#9 -4494913#8 -4494913#7 -4494913#6 47168895#0 47168895#1 1089452022#0 1089452022#2 1089452022#3 1089452022#4 1089452022#5 -198044378#4 -198044378#3 -198044378#2 -198044378#1 4787455#0 4787455#1 -4787455#1"/>
    </vehicle>
    <vehicle id="7" type="passenger" depart="0.70">
        <route edges="45105826#1 -595322020#2 -595322020#1 -595322020#0 4596880#0 4596880#1 4596880#2 595322016 380618974#0 380618974#1 380618974#2 380618974#3 380618974#4 380618974#5 380618974#6"/>
    </vehicle>
    <vehicle id="8" type="passenger" depart="0.80">
        <route edges="-485899794#4 -485899794#3 -485899794#2 -485899794#1 -485899794#0 485899794#0 485899794#1 485899794#2 485899794#3 485899794#4 4839473#0 4839473#1 4839473#2 -20279755#2 -20279755#1 -20279755#0 -732295445#2 -732295445#1 -732295445#0 -26303872 -20279746#3 -20279746#2 -20279746#1 -20279746#0 4470839#0 4470839#1 4470839#2 4470839#3 4470839#4 45773042#0 45773048 45787308 45786309#2 383167847 209263579 32405 45360553 45569651 198642283 4706944#0 4706944#1 4706944#2 -968763923#1 -968763923#0 -968763924 -4696644#2 4764010 4764011 4764012 417402315 124452930 4798879 4764310 736368180 23802711 380554729 69067222#0 69067222#1 102058907 102058910#0 102058910#1 1058909732 4296031#0 4296031#1"/>
    </vehicle>
    <vehicle id="10" type="passenger" depart="1.00">
        <route edges="4787503 45074531 745391452 114324471 4627829#0"/>
    </vehicle>
    <vehicle id="11" type="passenger" depart="1.10">
        <route edges="1136445706#1 -1136445706#1 -1136445706#0 4827884#0 4827884#1 4827884#2 1136445711 1136445707#0 1136445707#1 45359713 45359292#0 -4904139#2 -4904139#1 -4904145 -45359121#1 -45359121#0"/>
    </vehicle>
    <vehicle id="12" type="passenger" depart="1.20">
        <route edges="8119016#0 8119016#1 -4844449#2 -4844449#1 4677446#1 -172206441 -58648676#7 -58648676#6 -58648676#5 -58648676#4 -58648676#3 4494913#3 4494913#4 4494913#5 4494913#6 4494913#7 4494913#8 4494913#9 4494913#10 4494913#11 4494913#12 685023881#0 685023881#1 685023881#3 4475203#0 1097150695#1 1097150695#2 156536760#1 156536760#2 1103822695 4839479#0 4839479#1 1103822694 4839480 143784299 4839475 4981569 199863045 3469491 45785312#0 383167848 1126700705"/>
    </vehicle>
    <vehicle id="13" type="passenger" depart="1.30">
        <route edges="-250478229#0 -20279843 -250478226 -20279749 -20279748 -732295445#7 -732295445#6 -732295445#5 -732295445#4 -732295445#3 -732295445#2 -732295445#1 -732295445#0 -26303872 -20279746#3 -20279746#2 -20279746#1 -20279746#0 4470839#0 4470839#1 4470839#2 4470839#3 4470839#4 45773042#0 45773048 45787308 45786309#2 383167847 209263579 32405 45360553 45569651 198642283 4706944#0 4706944#1 4706944#2 -968763923#1 -968763923#0 -968763924 -4696644#2 4764010 4764011 4764012 417402315 124452930 4798879 4764310 736368180 23802711 380554729 69067222#0 69067222#1 102058907 102058910#0 102058910#1 1058909732 4296031#0 4296031#1 4296031#3 4296031#4 4296031#5 25548629#0 25548629#1 25548629#2 438870169 -25548631#2"/>
    </vehicle>
    <vehicle id="15" type="passenger" depart="1.50">
        <route edges="478847216 22821276 4981569 199863045 3469491 45785312#0 45786309#1 45786309#2 383167847 209263579 32405 45360553 45569651 198642283 4706944#0 4706944#1 4706944#2 -968763923#1 -968763923#0 -968763924 -4696644#2 -4696644#0 4696644#0"/>
    </vehicle>
    <vehicle id="16" type="passenger" depart="1.60">
        <route edges="37943342#1 4741290 -83607382#8 -83607382#6 -83607382#5 -83607382#3 -83607382#2 -83607382#1 -83607382#0 -595322020#2 -595322020#1 -595322020#0 4596880#0 4596880#1 4596880#2 595322016 380618974#0 380618974#1 380618974#2 380618974#3 380618974#4 380618974#5 380618974#6 730447301#0 730447301#1 380618973#0 151952407 735349188 735349186 380808600#1 995103496 588506827 466695357#0 466695357#1 466695357#2 389802136 389802137 8751893#0 -8751890#1 -8751890#0 8751890#0"/>
    </vehicle>
    <vehicle id="17" type="passenger" depart="1.70">
        <route edges="143769305 45051067#0 45051067#1 581609404#6 581609404#7 26403934#0 26403934#1 26403934#2 26403934#3 143769307#0 143769307#1 45049554#0 45049554#1 45051074#0 45051074#1 144176630#0 144176630#1 144176630#2 144176630#3 144176630#4 45886019#0 45886019#1 430737809#0 430737809#1 430737809#2 384169639 384169638 4574013 384185253"/>
    </vehicle>
    <vehicle id="18" type="passenger" depart="1.80">
        <route edges="4839480 143784299 4839475 4981569 199863045 3469491 45785312#0 383167848 32410 1126700706 159409664 55668653 384218087 384218090 384218092#1 55668655#0 55668655#1 -706496749#2 -706496749#1 -706496749#0 239811653 164500948#0 164500948#1 1103822693 -156536760#2 -156536760#1 -1097150695#2 -1097150695#1 -4475203#0 -685023881#3 -685023881#1 -685023881#0 -4494913#12 -4494913#11 -4494913#10 -4494913#9 -4494913#8 -4494913#7 -4494913#6 -4494913#5 -4494913#4 -4494913#3 -4494913#2 -4494913#1 -4494913#0 4494913#0 4494913#1"/>
    </vehicle>
    <vehicle id="19" type="passenger" depart="1.90">
        <route edges="4904140#3 -4904140#3 -4904140#1 -4904139#3 1136445708#0 1136445708#1 1136445719#0 1136445719#1 1136445719#2 1136445717#0 1136445717#1 1136445715 1136445706#0 1136445706#1 -45886020#1 -45886020#0 4483894#0 4483894#1 4483894#2 4483894#3 417313760#1 417316667#0 417316667#1 417316667#2"/>
    </vehicle>
    <vehicle id="20" type="passenger" depart="2.00">
        <route edges="4642304#1 4642304#2 4642304#3 721037390 -1003917173 -201700815 -205819136 -90682376 -203955671#0 -131860123#1 -131860123#0 41863459#0 41863459#1 41863459#2 102058901 102058910#0 102058910#1 1058909732 4296031#0 4296031#1 4296031#3 4296031#4 4296031#5 4296031#6 4296031#7 4296031#9 4296031#10 69067200 736368261 736368260 4296033 93230126#0 93230126#1 144176631#0 144176631#1 93230129 4764318#0 4764318#1 4764318#2 4764318#3 19080750 -19080750"/>
    </vehicle>
    <vehicle id="21" type="passenger" depart="2.10">
        <route edges="-4904139#1 4904139#1 4904139#2 45359292#1 45359292#2 45359292#3 209263579 32405 45360553 45569651 198642283 4706944#0 4706944#1 4706944#2 -968763923#1 -968763923#0 -968763924 -4696644#2 4764010 4764011 4764356 4829941 4764357#0 4764321 69067221#0 69067221#1 69067221#2 4764308 69067210 736368178 736368179 69067217#0 69067217#1 8751310#0 8751310#1 -8751310#1"/>
    </vehicle>
    <vehicle id="22" type="passenger" depart="2.20">
        <route edges="-209263690#3 -209263690#2 -209263690#1 -209263690#0 -1136445706#1 -1136445706#0 4827884#0 4827884#1 4827884#2 1136445711 1136445707#0 1136445707#1 45359713 45359292#0 45359292#1 -599966746#1 -599966746#0 4904141#0 4904141#1 4904141#2 4904141#3 -4904141#3"/>
    </vehicle>
    <vehicle id="23" type="passenger" depart="2.30">
        <route edges="-28380058#0 45051111#0 45051111#1 210429351#0 210429351#1 -4839472#1 -4839472#0 -45073628#6 -45073628#5 -45073628#4 -45073628#3 -45073628#2 -45073628#1 23605424 78334965#0 78334965#1 78334965#2 -78334965#2"/>
    </vehicle>
    <vehicle id="24" type="passenger" depart="2.40">
        <route edges="45051068#1 45051068#2 202744706#0 202744706#1 202744706#2 -205819136 -90682376 -203955671#0 -131860123#1 -131860123#0 41863459#0 41863459#1 41863459#2 102058901 102058910#0 102058910#1 1058909732 4296031#0 4296031#1 4799422 380554725 69067201 736368181 4798872 69067218 4763830 4345001 4345002#0 4345002#1 3469493 579403732 579403734 4470835 1801 1126700706 124452933"/>
    </vehicle>
    <vehicle id="25" type="passenger" depart="2.50">
        <route edges="133634474 -133634474 -10111716#3 -10111716#2 -10111716#1 -10111716#0 10111714#0 10111714#1 4741295#6 4741295#7 4741295#8 4741295#9 4741295#10 4741295#11 9788059#1 9788059#2 11339912#0 11339912#1 47171927#0 12796510 35066914#0 151952408 735349187 735349189 4548443#1 380618972 -730447301#1 -730447301#0 -380618974#6 -380618974#5 -380618974#4 -380618974#3 -380618974#2 -380618974#1 -380618974#0 380618971#0 380618971#1 386617897 4760219 386617898#0 386617898#1 262604451 206317573 1089451382#0 1089451382#1 1089451382#2 83607382#2 83607382#3 83607382#5 83607382#6 83607382#8 4741291#0 983637050#0 983637050#1 983637050#2 8119016#0 8119016#1 -4844449#2"/>
    </vehicle>
    <vehicle id="26" type="passenger" depart="2.60">
        <route edges="-736817048 -115418036 -964670164 -45073976#3 -45073976#2 -45073976#1 -45073976#0 206317572 -206317572 -99798486 -417415066 -4787455#1 -4787455#0 -198969727#1 -4683299 143769308#0 143769308#1 204790848 4953268#0 4953268#1 4953268#2 4764294#0 4764294#1 -143769306#4 -143769306#2 -143769306#1 -143769304#1 -143769304#0 -4483920#1 -4483920#0 -209263690#3 -209263690#2 -209263690#1 -209263690#0 -1136445706#1 -1136445706#0 4827884#0 4827884#1 4827884#2 1136445710#0 1136445710#1 1136445710#2 1136445710#3 1136445710#4 430737809#0 430737809#1 430737809#2 384169639 384169638 4574013 384186892 384186233 384169518 -45570241 45570240#0 45570240#1 45570240#2 198642283 4706944#0 4706944#1 4706944#2 -968763923#1 -968763923#0 -968763924 -4696644#2 4764010 4764011 4764012 417402315 124452930 4798879 4764310 736368180"/>
    </vehicle>
    <vehicle id="27" type="passenger" depart="2.70">
        <route edges="45074078#1 144176629 151952407 735349188 735349186 4642304#0 4642304#1 4642304#2 4642304#3 721037390 4642302#0 4642302#1 4642302#2 4642302#3 201700816 26403933#2 4476790#1 45885961 45885962 13444210#0 13444210#1 13444212#1 13444212#2 -143769306#4 -143769306#2 -143769306#1 143769303 4483892#0 4483892#1 4483892#2 381215016 4483893#0 4483893#2 4483893#3"/>
    </vehicle>
    <vehicle id="28" type="passenger" depart="2.80">
        <route edges="-45885962 -45885961 -4476790#1 4476790#1 45885961 45885962 13444210#0 13444210#1 13444212#1 13444212#2 -143769306#4 -143769306#2 -143769306#1 143769303 4483892#0 4483892#1 4483892#2 381215016 4483893#0 4483893#2 4483893#3 4483893#4 45051085 4397805 4521153#0 4521153#1 4521153#2 20448023 990894174 4683301#0 4683301#1 4683301#2 4683301#3"/>
    </vehicle>
    <vehicle id="30" type="passenger" depart="3.00">
        <route edges="96646975#1 96646975#2 -45073629#5 -45073629#4 -45073629#3 -45073629#2 -45073629#0 -20279759#4 -20279759#3 -20279759#2 -20279759#1 -20279759#0 -45073628#6 -45073628#5 -45073628#4 -45073628#3 -45073628#2 -45073628#1 -45073628#0 45073628#0"/>
    </vehicle>
    <vehicle id="31" type="passenger" depart="3.10">
        <route edges="384189460 453367155 4345002#1 3469493 579403732 579403734 4470835 1801 1126700706 159409664 55668653 384218087 384218090 384218092#1 55668655#0 55668655#1 -706496749#2 -706496749#1 -706496749#0 239811653 164500948#0 164500948#1 1103822693 1103822695 4839479#0 4839479#1 1103822694 4839480 143784299 4839475 4981569 199863045 3469491 45785312#0 45786309#1 45786309#2 383167847 209263579 32405 45360553 45569651 25774329#0 25774329#1 45570240#0 45570240#1 45570240#2"/>
    </vehicle>
    <vehicle id="32" type="passenger" depart="3.20">
        <route edges="485899794#0 485899794#1 485899794#2 485899794#3 485899794#4 4839473#0 4839473#1 4839473#2 -20279755#2 -20279755#1 -20279755#0 -732295445#2 -732295445#1 -732295445#0 -26303872 -20279746#3 -20279746#2 -20279746#1 -20279746#0 4470839#0 4470839#1 4470839#2 4470839#3 4470839#4 45773042#0 45773048 45787308 45786309#2 383167847 209263579 32405 45360553 45569651 198642283 4706944#0 4706944#1 4706944#2 -968763923#1 -968763923#0 -968763924 -4696644#2 -4696644#0 -28379982#1 -28379982#0 -4764316#2 -4764316#1 -4764316#0 4745226#0"/>
    </vehicle>
    <vehicle id="33" type="passenger" depart="3.30">
        <route edges="-4904139#4 4904139#4 4904139#5 4904139#6 45773042#0 45773048 45787305 383167848 32410 1126700706 159409664 55668653 384218087 384218090 384218092#1 55668655#0 55668655#1 -706496749#2 -706496749#1 -706496749#0 239811653 164500948#0 164500948#1 1103822693 -156536760#2 -156536760#1 -425184482#0 -77664375#3 -77664375#2 -77664375#1 -77664375#0 -77663269#3 -77663269#2 -77663269#1 -77663269#0 -135312836#3"/>
    </vehicle>
    <vehicle id="35" type="passenger" depart="3.50">
        <route edges="-4844453#0 -172206437#2 -172206437#1 -172206437#0 -172206441 -58648676#7 -58648676#6 -58648676#5 -58648676#4 -58648676#3 4494913#3 4494913#4 4494913#5 4494913#6 4494913#7 4494913#8 4494913#9 4494913#10 4494913#11 4494913#12 685023881#0 685023881#1 685023881#3 -96646976#1 -77663269#3 -77663269#2 -77663269#1 -77663269#0 -135312836#3 -135312836#1 -135312836#0 135312836#0 135312836#1 135312836#3 77663269#0 77663269#1 77663269#2"/>
    </vehicle>
    <vehicle id="38" type="passenger" depart="3.80">
        <route edges="677579396#1 -677579396#1 -20279753#2 -20279753#1 -20279753#0 -732295445#4 -732295445#3 -732295445#2 -732295445#1 -732295445#0 -26303872 -20279746#3 -20279746#2 -20279746#1 -20279746#0 -210429351#1 -210429351#0 210429351#0"/>
    </vehicle>
    <vehicle id="39" type="passenger" depart="3.90">
        <route edges="-732295445#3 -732295445#2 -732295445#1 -732295445#0 -26303872 -20279746#3 -20279746#2 -20279746#1 -20279746#0 4470839#0 4470839#1 4470839#2 4470839#3 4470839#4 45773042#0 45773048 45787305 383167848 32410 1126700706 159409664 55668653 384218087 384218090 384218092#1 55668655#0 55668655#1 -706496749#2 -706496749#1 -706496749#0 239811653 164500948#0 164500948#1 1103822693 -156536760#2 -156536760#1 -1097150695#2 -1097150695#1 -4475203#0 -4991184#1"/>
    </vehicle>
    <vehicle id="40" type="passenger" depart="4.00">
        <route edges="384218090 384218092#1 55668655#0 55668655#1 -706496749#2 -706496749#1 -706496749#0 239811653 164500948#0 164500948#1 1103822693 -156536760#2 -156536760#1 -1097150695#2 -1097150695#1 -4475203#0 -685023881#3 -685023881#1 -685023881#0 -4494913#12 -4494913#11 -4494913#10 -4494913#9 -4494913#8 -4494913#7 -4494913#6 -4494913#5 -4494913#4 -4494913#3 -4494913#2 -4494913#1 -4494913#0 595233510 4741290 12682521 -4494912#5 -4494912#4 -4494912#3 -4494912#2 -4494912#1 -4494912#0 99798486 206317572 958054763 197572274 26410601#0 26410601#1 26410601#2 26410600#0 4717601 4627913#0 4627913#1 4627913#2 45074078#0 45074078#1 144176629 4548443#1 380618972 -730447301#1"/>
    </vehicle>
    <vehicle id="42" type="passenger" depart="4.20">
        <route edges="172333307#1 386617898#0 386617898#1 262604451 206317573 1089451382#0 1089451382#1 1089451382#2 83607382#2 83607382#3 83607382#5 83607382#6 83607382#8 4741291#0 4741291#1 4494913#0 4494913#1 4494913#2 4494913#3 4494913#4 4494913#5 4494913#6 4494913#7 4494913#8 4494913#9 4494913#10 4494913#11 4494913#12 685023881#0 685023881#1 685023881#3 4475203#0 1097150695#1 1097150695#2 156536760#1 156536760#2 1103822695 4839479#0 4839479#1 1103822694 59738304#1 833743727#0 833743727#1 4839478#0 4839478#2 4839478#3 96646975#0 96646975#1 96646975#2 45359877#0 45359877#1 45359877#2 45359877#3 45359877#4 45359877#6 45359877#7 45359877#8 45359877#9 45359877#10 45359877#11 45359877#12 45359877#13 485899794#0 485899794#1 485899794#2 485899794#3 485899794#4 -485899794#4 -485899794#3 -485899794#2 -485899794#1"/>
    </vehicle>
    <vehicle id="43" type="passenger" depart="4.30">
        <route edges="983637050#1 983637050#2 8119016#0 8119016#1 114002811#0 114002811#1 114002811#2 242775880 491305324#0 491305324#1 491305324#2 162901771#0 -83607382#8 -83607382#6 -83607382#5 -83607382#3 -83607382#2 -83607382#1 -83607382#0 -595322020#2 -595322020#1 -595322020#0 4596880#0 4596880#1 4596880#2 386617899 386617897 4760219 386617898#0 386617898#1 262604451"/>
    </vehicle>
    <vehicle id="44" type="passenger" depart="4.40">
        <route edges="-23863002#0 23863002#0 23863002#1 -45359877#4 -45359877#3 -45359877#2 -45359877#1 -45359877#0 -96646975#2 -96646975#1 -96646975#0 -4839478#3 -4839478#2 -4839478#0 164500952#0 164500952#1 -196934179#12 -196934179#11 -196934179#10"/>
    </vehicle>
    <vehicle id="45" type="passenger" depart="4.50">
        <route edges="-380618974#4 -380618974#3 -380618974#2 -380618974#1 -380618974#0 380618971#0 380618971#1 386617897 4760219 386617898#0 386617898#1 262604451 206317573 1089451382#0 1089451382#1 1089451382#2 83607382#2 83607382#3 83607382#5 83607382#6 83607382#8 4741291#0 983637050#0 983637050#1 983637050#2 8119016#0 8119016#1 4494926#0 4494926#1 4494926#2 4494926#3 4494926#4 4494926#5 4494926#7"/>
    </vehicle>
    <vehicle id="46" type="passenger" depart="4.60">
        <route edges="4764316#2 -4764316#2 -4764316#1 -4764316#0 4745226#0 4745226#1 4764321 69067221#0 69067221#1 69067221#2 1117207664 237046751#0 237046751#2 237046751#3 205820313 204866197#0 4644890#0 4644890#1 4644890#2 4644890#3 4644888#0 4644888#1 4644892 198044386#0 198044386#1 46549966#0 46549966#1 4573820#0 4573820#1 221112635#0 221112635#1 45051067#0 45051067#1 45051067#2 45051067#3 45051068#0 45051068#1 45051068#2 202744706#0 202744706#1"/>
    </vehicle>
    <vehicle id="47" type="passenger" depart="4.70">
        <route edges="-20279759#1 -20279759#0 20279759#0 20279759#1 20279759#2 20279759#3 20279759#4 45073629#0 45073629#2 45073629#3 45073629#4 45073629#5 -96646975#2 -96646975#1 -96646975#0 -4839478#3 -4839478#2 -4839478#0 -833743727#1 -833743727#0 -59738304#1 4839480 143784299"/>
    </vehicle>
    <vehicle id="48" type="passenger" depart="4.80">
        <route edges="9788059#1 9788059#2 11339912#0 11339912#1 47171927#0 12796510 35066914#0 4642304#0 4642304#1 4642304#2 4642304#3 721037390 4642302#0 4642302#1 4642302#2 4642302#3 201700816 26403933#2 4476790#1 45885961 45885962 13444210#0 13444210#1 13444212#1 13444212#2 4764294#2 42796910#0 42796910#1 30023678"/>
    </vehicle>
    <vehicle id="49" type="passenger" depart="4.90">
        <route edges="8751310#4 8751310#5 8751310#6 -4750193#2 -4750193#0 1046745409#0 1046745409#1 1046745409#2 1046745409#3 1046745409#4 1046745409#5 226151793 17980412 69067200 736368261 736368260 4296033 93230126#0 93230126#1 144176631#0 144176631#1 144176631#2 4764316#0 4764316#1 4764316#2 28379982#0 28379982#1 4696644#0 4696644#2 968763924 968763923#0 968763923#1 4706946#0 4706946#1 384210565#0 384210565#1 198642281#0 198642281#1 417627763 25774329#0 25774329#1 45570241 384185252 384185251 384186897 384186900 430737811 384186903 1047548239#1 164500951 45359295#0 45359295#1 45359295#2 45359713 45359292#0 45359292#1 -599966746#1 -599966746#0 4904140#3"/>
    </vehicle>
    <vehicle id="50" type="passenger" depart="5.00">
        <route edges="-1089452022#0 1089452022#0 1089452022#2 1089452022#3 1089452022#4 1089452022#5 4745074 4683301#0 4683301#1 4683301#2 4683301#3 4683301#4 143769308#0 143769308#1 204790848 4953268#0 4953268#1 4953268#2 4764294#0 4764294#1 -143769306#4 -143769306#2 -143769306#1 -143769304#1 -143769304#0 -4483920#1 -4483920#0 417313760#0 417313760#1 417316667#0 417316667#1 4644895#0 4644895#1 4644902#2 4644902#3"/>
    </vehicle>
    <vehicle id="51" type="passenger" depart="5.10">
        <route edges="4548297#5 4548297#6 -4494926#12 -4494926#10 -4494926#7 -4494926#5 -4494926#4 -4494926#3 -4494926#2 -4494926#1 -4494926#0 114002811#0 114002811#1 114002811#2 242775880 491305324#0 491305324#1 491305324#2 162901771#0 12682521 37943342#0"/>
    </vehicle>
    <vehicle id="52" type="passenger" depart="5.20">
        <route edges="-736817048 -115418036 -964670164 -45073976#3 -45073976#2 -45073976#1 -45073976#0 206317572 -206317572 -99798486 -417415066 -4787455#1 -4787455#0 -198969727#1 -4683299 143769308#0 143769308#1 204790848 4953268#0 4953268#1 4953268#2 4764294#0 4764294#1 -143769306#4 -143769306#2 -143769306#1 -143769304#1 -143769304#0 -4483920#1 -4483920#0 -209263690#3 -209263690#2 -209263690#1 -209263690#0 -1136445706#1 -1136445706#0 4827884#0 4827884#1 4827884#2 1136445711 1136445714 219273311#0 219273311#1 219273311#3 219273311#4 384212608#2 384212608#3 210429351#0 210429351#1 -4839472#1 -4839472#0 -45073628#6 -45073628#5 -45073628#4 -45073628#3 -45073628#2 -45073628#1 45073628#1 45073628#2"/>
    </vehicle>
    <vehicle id="53" type="passenger" depart="5.30">
        <route edges="-384186891#1 -384186891#2 384186891#2 384186891#1 -384186891#0 384185250#0 384185250#1 384185250#2 384186897 384186900 430737811 384186903 1047548239#1 164500951 1136445712#0 1136445712#1 1136445712#2 1136445714 219273311#0 219273311#1 219273311#3 219273311#4 384212608#2 384212608#3 210429351#0 210429351#1 -4839472#1 -4839472#0 20279759#0 20279759#1 20279759#2 20279767 -20279768#0 20279768#0"/>
    </vehicle>
    <vehicle id="55" type="passenger" depart="5.50">
        <route edges="4981556#3 4981556#4 -1089452022#0 -47168895#1 -47168895#0 -4494913#5 -4494913#4 -4494913#3 -4494913#2 -4494913#1 -4494913#0 595233510 4741290 -83607382#8 -83607382#6 -83607382#5 -83607382#3 -83607382#2 -83607382#1 -83607382#0 4991175#0 4991175#1 28891919#1 28891919#2 1089451382#0 -77670352#1 -77670352#0 -731204872#0"/>
    </vehicle>
    <vehicle id="56" type="passenger" depart="5.60">
        <route edges="25548631#1 25548631#2 -438870169 438870169 -25548631#2 -25548631#1 -25548631#0 4296031#7 4296031#9 4296031#10 69067200 736368261 736368260 4296033 93230126#0 93230126#1 144176631#0 144176631#1 144176631#2 380100956 226152921#1 226150745 152135172 102730103 4345002#0 4345002#1 3469493 579403732 579403734 4470835 1801 1126700706 159409664 55668653 384218087 384218090 384218092#1 55668655#0 55668655#1 -706496749#2 -706496749#1 -706496749#0 239811653 164500948#0 164500948#1 1103822693 -156536760#2 -156536760#1 -1097150695#2 -1097150695#1 -4475203#0 -685023881#3 -685023881#1 -685023881#0 -4494913#12 -4494913#11 -4494913#10 -4494913#9 -4494913#8 -4494913#7 -4494913#6 47168895#0 47168895#1 -47168895#1"/>
    </vehicle>
    <vehicle id="57" type="passenger" depart="5.70">
        <route edges="65001620#0 121942167 384189462#1 384186891#3 384186891#2 384186891#1 -384186891#0 384185250#0 384185250#1 384185250#2 384186897 384186900 430737811 384186903 1047548239#1 164500951 1136445712#0 1136445712#1 1136445712#2 1136445714 219273311#0 219273311#1 219273311#3 219273311#4 384212608#2 384212608#3 -45051111#1 -45051111#0 28380058#0 28380058#1 28380058#2 4628076 196934179#0 196934179#1 196934179#2 196934179#3 -20448005#7 -20448005#6 4778498#0 4778498#1 4778498#2 4745073#0 4745073#2 4745073#3 4745073#4 4521152#0 4521152#1 4521152#2 -4494913#12 -4494913#11 -4494913#10 -4494913#9 -4494913#8 -4494913#7 -4494913#6 -4494913#5 -4494913#4 -4494913#3 -4494913#2 -4494913#1 -4494913#0 595233510 983637050#0 983637050#1 983637050#2 8119016#0 8119016#1 114002811#0 114002811#1 114002811#2 242775880 491305324#0 491305324#1"/>
    </vehicle>
    <vehicle id="58" type="passenger" depart="5.80">
        <route edges="-93269804#0 -8073108#2 -8073108#1 9788059#1 9788059#2 11339912#0 11339912#1 47171927#0 12796510 35066914#0 4642304#0 4642304#1 4642304#2 4642304#3 721037390 4642302#0 4642302#1 4642302#2 4642302#3 201700816 26403933#2 45073934 26403934#0 26403934#1 26403934#2 26403934#3 143769307#0 143769307#1 45049554#0 45049554#1 45051074#0 45051074#1 144176630#0 144176630#1 144176630#2 144176630#3 144176630#4 45886019#0 45886019#1 1047548239#1 164500951 1136445712#0 1136445712#1 1136445712#2 1136445714 219273311#0 219273311#1 219273311#3 219273311#4 384212608#2 384212608#3 -45051111#1 -45051111#0 45051125#0"/>
    </vehicle>
    <vehicle id="59" type="passenger" depart="5.90">
        <route edges="4483893#2 4483893#3 4483893#4 45051085 4397805 4683300#0 4683300#1 -4628076 -28380058#2 -28380058#1 -28380058#0 45051111#0 45051111#1 -384212608#3 -384212608#2 198642284#0 198642284#1 198642284#2 198642284#3 1136445716#0 1136445711 1136445707#0 1136445707#1 45359713 45359292#0 -4904139#2 -4904139#1 -4904139#0 -45359120#0 4904149#1 4904149#2 4904149#3 968763898#0 968763898#1 45359065#0 45359065#1 -45359065#1"/>
    </vehicle>
    <vehicle id="61" type="passenger" depart="6.10">
        <route edges="4750189#4 417316667#7 1046745409#0 1046745409#1 1046745409#2 1046745409#3 380098110#0 380098110#1 69067217#1 69067217#2 69067217#3 257885010#2 226151434 32565783#0 32565783#1"/>
    </vehicle>
    <vehicle id="62" type="passenger" depart="6.20">
        <route edges="-10111716#0 10111714#0 10111714#1 4741295#6 4741295#7 4741295#8 4741295#9 4741295#10 4741295#11 9788059#1 9788059#2 11339912#0 11339912#1 47171927#0 12796510 35066914#0 4642304#0 4642304#1 4642304#2 4642304#3 721037390 -1003917173 -201700815 -205819136 4644896#0 4644896#1 4644896#2 4644896#3 205833528#0 205833528#1 205833528#3 45051050#0 8746406#0 8746406#1 581608794 581608796#0 581608796#1 4798846#0 4798846#1 -4750193#5 -4750193#4 -4750193#3 -4750193#2 -4750193#0 1046745409#0 1046745409#1 1046745409#2 1046745409#3 1046745409#4"/>
    </vehicle>
    <vehicle id="63" type="passenger" depart="6.30">
        <route edges="-116370279#0 -4475215#7 -4475215#6 -4475215#5 -4475215#4 -4475215#2 -4475215#1 -4475215#0 -4494913#12 -4494913#11 -4494913#10 -4494913#9 -4494913#8 -4494913#7 -4494913#6 47168895#0 47168895#1 1089452022#0 1089452022#2 1089452022#3 4677319#0 4677319#1 4677319#3 726172047"/>
    </vehicle>
    <vehicle id="64" type="passenger" depart="6.40">
        <route edges="4991175#1 -4991175#1 -4991175#0 83607382#0 83607382#1 83607382#2 83607382#3 83607382#5 83607382#6 83607382#8 4741291#0 983637050#0 983637050#1 983637050#2 8119016#0 8119016#1 -4844449#2 -4844449#1 4844449#1"/>
    </vehicle>
    <vehicle id="65" type="passenger" depart="6.50">