<?xml version="1.0" encoding="UTF-8"?>

<!-- generated on 2023-06-20 18:15:16.489450 by randomTrips.py UNKNOWN
<configuration>
    <net-file value="glasgow.net.xml"/>
    <output-trip-file value="ped_trips.xml"/>
    <route-file value="ped_routes.rou.xml"/>
    <pedestrians value="True"/>
    <end value="600"/>
    <period value="5.0"/>
</configuration>
-->

<!-- generated on 2023-06-20 18:15:16 by Eclipse SUMO duarouter Version 1.17.0
<configuration xmlns:xsi="http://www.w3.org/2001/XMLSchema-instance" xsi:noNamespaceSchemaLocation="http://sumo.dlr.de/xsd/duarouterConfiguration.xsd">

    <input>
        <net-file value="glasgow.net.xml"/>
        <route-files value="ped_trips.xml"/>
    </input>

    <output>
        <output-file value="ped_routes.rou.xml"/>
        <alternatives-output value="NUL"/>
    </output>

    <time>
        <begin value="0"/>
        <end value="600"/>
    </time>

    <report>
        <no-warnings value="true"/>
        <ignore-errors value="true"/>
        <no-step-log value="true"/>
    </report>

</configuration>
-->

<routes xmlns:xsi="http://www.w3.org/2001/XMLSchema-instance" xsi:noNamespaceSchemaLocation="http://sumo.dlr.de/xsd/routes_file.xsd">
    <person id="0" depart="0.00">
        <walk edges="387109456#1 387109456#0 -101513478#2 -101513478#1 -101513478#0 -77664375#2 -77664375#1 -77664375#0 437898935 147564999 437898938 -685023881#1 -685023881#0 -4494913#12 -4494913#11 -4494913#10 -4494913#9 -4494913#8 -4494913#7 -4494913#6 -4494913#5 -4494913#4 4494913#3 -58648676#2 -58648676#1 -116370232 -116370222 -116370230#2 -116370230#1"/>
    </person>
    <person id="1" depart="5.00">
        <walk edges="-890778748#1 -890778749 890778752 889984800#1 890778751 -26303876 -26303875 26303874#3 1155343540 1155343539 1155343541#0 1155343541#1 1155343547 1155343542#0 1155343542#1 1155343546 1155343543 26303873 1157030914 20279756#3 20279756#2 20279756#1 -20279756#0 45073628#0 23605424 -78334965#0 78334965#1 78334965#2 23605426 23605423#2 23605423#1 23605423#0 23605433#0 -23605432 23605442#1 744750272 744750271 744750270 744750269 1106121183#1 307803060#1 1106121183#3 1106121183#4 744750260#1 744750261#2 744750261#1 744750261#0 -20448005#7 20448005#6 -20448005#4 -20448005#3 -20448005#2 -20448005#1 -20448005#0 20448023 990894174 -4745074 -1089452022#5 -1089452022#4 4677319#0 4677319#1 4677319#3 726172047 45073977#1 45073977#0 4548200#4 -4548200#3 -4548200#2 -4548200#1 4548200#0 1175931568#1 1175931570#0 1175931569#0 -28891919#2 -28891919#1 1175931567#1 1175931578#2 1175931577#0 1175931577#1 1175931585#2 1175931585#1 -595322020#0"/>
    </person>
    <person id="2" depart="10.00">
        <walk edges="45886021 -45886020#0 -45886020#1 209263691#4 209263691#3 209263691#2 209263691#0 199863044#2 199863044#1 199863044#0 4570715 45051125#2 45051125#1 45051125#0 -28380058#0 -28380058#1 -28380058#2 -4628076 -196934179#0 103741992#0 103741992#1 103741996 43183919#1"/>
    </person>
    <person id="3" depart="15.00">
        <walk edges="727833913#6 -727833913#0 8751890#0 -8751890#1 8751893#1 -203955671#0 -90682376 -205819136 -201700815 -1003917173 4642302#0 4642302#1 4642302#2 4642302#3 201700816 26403933#2 45073934 26403934#0 -25701101 42796910#2 42796910#1 42796910#0 198044382#3 198044382#2 198044382#1 -5171333#1 -5171333#0 -143769306#1 143769303 4483892#0 4483892#1 4483892#2 381215016 4483893#0 892553107 987846921 894981821#2 892553114#2 892553114#3 892574652#3 892574652#4 225910569 -37607624#1 -37607624#0 45074530 185136472 185136473 -4628076 -196934179#0 196934179#1 196934179#2 196934179#3 -20448005#7"/>
    </person>
    <person id="4" depart="20.00">
        <walk edges="133917373#0 133917373#1 10111719#3 10111719#2 -10111719#0 -53804609#0 133632797#2 133917371 -10111730#0 -10111730#2 -93269804#1 93269804#0 8073108#2 1014239671#1 1014239671#0 1113007292 11339907#0 4589099#3 4589099#4 164087247#0 -8073923#0 5137042 4548444 45403676#0 28892129#1 -380618974#6 -380618974#5 380618974#4 380618974#3 380618974#2 -380618974#1 -380618974#0 380618971#0 380618971#1 386617897 4760219 386617898#0 386617898#1 262604451 1175931568#1 1175931570#0 1175931569#0 1089451382#0 1089451382#1 1089451382#2 8073925#0 1175931588 -1175931588"/>
    </person>
    <person id="5" depart="25.00">
        <walk edges="-55702653#0 -55702653#1 -55702653#2 55702653#3 -55702653#4 -55702653#5 -55702653#6 -55702653#7 -55702653#8 55702656 -4548200#2 -4548200#3 4548200#4 4980164 4548209#3 -4677321 -83607382#8 4741290 595233510 -4494913#0 -4494913#1 -4494913#2 4494913#3 -4494913#4 -4494913#5 -4494913#6 -4494913#7 -4494913#8 -4494913#9 -4494913#10 -4494913#11 -4494913#12 -685023881#0 -685023881#1 437898938 147564999 437898935 -77664375#0 -77664375#1 -77664375#2 -101513478#0 -101513478#1 -101513478#2 387109456#0 387109459 -156536760#1 -156536760#2 1103822695 4839479#0 4839479#1 1103822694 463312837#1 23862995#0 188948807#0 -59738303 45839039#0 485899794#1 -485899794#2 485899794#3 485899794#4 -20279750#0 20279751#0 20279751#1"/>
    </person>
    <person id="6" depart="30.00">
        <walk edges="-116370283 -22287204 -116370230#1 -116370230#2 -116370222 -116370232 -58648676#0 4677320#1 4677320#0 58169416 4787475#0 145781025 4787473#0 -198044378#2 -198044378#1 -198969727#1 -198642280#1 -198642280#0 -4627827 47168897#0 47168897#1 204790849 4953268#0 4953268#1 4953268#2 4764294#0 4764294#1 -143769306#4 -30023799#0 -30023799#1 198044382#2 198044382#1 198044382#0 45049553 221112638 4573820#1 4573820#0 46549966#1 46549966#0 198044386#1 198044386#0 4644889#3 4750191#0 4750191#1 4750189#1 134939926 134939930 134939933 134939939#2 134939932#0 134939934 134939928 -4750193#2 -4750193#0 1046745408#1 1046745408#0 237046751#0 1117207664 69067221#2 69067221#1 69067221#0 4764321 4745226#1 4745226#0 4764319 -4764318#0 -4764318#1 4764318#2 45362408 255574800 -4865968#1"/>
    </person>
    <person id="9" depart="45.00">
        <walk edges="485899793#0 -5002646 45359877#13 -23862996#0 -23862996#2 -23862996#3 -23862996#4 167639665#1 167639675#4 167639675#3 167639675#2 167639675#1 888028120#0 77664306#1 -77664306#0 45359877#4 -45359877#3 45359877#2 -45359877#1 -45359877#0 45073629#5 23605442#1 744750272 744750271 744750270 744750269 744750267 77663265#0 1106121183#3 1106121183#4 744750260#1 744750261#2 744750261#1 744750261#0 -20448005#7 20448005#6 -20448005#4 -20448005#3 -20448005#2 101519095#0 -101519062"/>
    </person>
    <person id="10" depart="50.00">
        <walk edges="4844454#1 -4844454#2 -4494926#10 -4494926#7 -4494926#5 -4494926#4 -4494926#3 -4494926#2 -4494926#1 -4494926#0 8119016#1 8119016#0 983637050#2 983637050#1 983637050#0 37943342#1 37943342#0 -4494912#5 -4494912#4 -4494912#3 -4494912#2 -4494912#1 -4494912#0 4494911#4 4494911#3 4494911#2 4494911#1 4494911#0 28776351#5 28776351#4 28776351#3 28776351#2 28776351#1 4474113#1 4474113#0 26403932 4953267#0 4953267#1 4953265 -1003917173 -201700815 202744706#2 202744706#1 202744706#0 45051068#2"/>
    </person>
    <person id="11" depart="55.00">
        <walk edges="1127483390 431750720 386617896 172333307#0 -386618432#0 -386618432#1 -197572274 -958054763 -206317572 -99798486 -417415066 -4787455#1 -4787455#0 -198969727#1 -4683299 45051129 4683300#0 4683300#1 -4628076 -28380058#2 -28380058#1 -28380058#0 -45051111#0 45051111#1 -45051111#1"/>
    </person>
    <person id="12" depart="60.00">
        <walk edges="8752620#2 221119204#4 221119204#3 221119204#2 4573820#1 221112638 45049553 203403883#0 143769303 4483892#0 4483892#1 4483892#2 381215016 4483893#0 892553107 987846921 894981821#2 892553114#2 894981816#4 894981816#3 894981818 892553118 892553116#0 892553116#1 987846923 892553115 45051085 4397805 4521153#0 4521153#1 4521153#2 -1088915061 -1088915060#0 -4521152#0 1089452021#1 1105467584"/>
    </person>
    <person id="13" depart="65.00">
        <walk edges="-216664508#1 -216664508#0 -216664509#0 25739963#1 -28891695#2 156536765 114002811#2 414108879#0 414108879#1 414108873#0 -83607388#1 983637050#1 983637050#0 37943342#1 37943342#0 -4494912#5 -4494912#4 -4494912#3 -4494912#2 -4494912#1 -4494912#0 4494911#4 4494911#3 4494911#2 4494911#1 4494911#0 28776351#5 28776351#4 28776351#3 28776351#2 28776351#1 4474113#1 4474113#0 26403932 4953267#0 4953267#1 4953265 -1003917173 -201700815 205819136 90682376 -203955671#0 131860123#1 131860123#0 77647202#1 -77647202#0 229159105#0 229159105#1 -229159105#1"/>
    </person>
    <person id="14" depart="70.00">
        <walk edges="544577570 544577572#0 544577572#1 544577573 544577574 532504152#0 532504151 547497995#1 547497995#0 547497994 547497996#2 532581792 -4991184#1 4475203#0 -1097150695#1 1097150695#2 -425184482#0 -143784301#4 -143784301#3 -143784301#2 -143784301#1 -143784301#0 -196934179#12 -196934179#11 23863004#4 997592565#0 997592565#1 997592565#2 997592566 -196934179#8 -196934179#7 -196934179#6 744750261#0 744750261#1 744750261#2 744750260#1 1106121183#4 1106121183#3 307803060#1 307803060#0"/>
    </person>
    <person id="15" depart="75.00">
        <walk edges="4844457#1 -4844457#0 -4844455#2 -4844455#0 -4494926#7 -4494926#5 -4494926#4 -4494926#3 -4494926#2 -4494926#1 172206444#0 172206444#1 172206444#2 -4844450#0 -4677446#1 -172206441 -58648676#7 4844447#0 4844448 4844446#1 -4844446#0 -4494913#4 58169647#1 58169647#0 22287197 -4638062#1 -4638062#0 4981556#4 4981556#3 4981556#1 4981556#0 -1088915061 -20448005#0 -20448005#1 -20448005#2 -20448005#3 -20448005#4 20448005#6 -20448005#7 744750261#0 744750261#1 744750261#2 744750260#1 1106121183#4 1106121183#3 307803060#1 1106121183#1 744750269 744750270 744750271 744750272 23605442#1 23605432 23605433#0 23605423#0 20279762#5 20279762#6 121929395#0 121929395#1 121929395#2 121929395#3 121929413#1 121929389 -45073628#5 143927419 -23605439 4839472#1 4470839#0 4470839#1 -4470839#2 4470839#3 -4470839#4 -45773042#0 45787318#1 45787318#0 383167848 45362089#0 45362090#0 45568795#2"/>
    </person>
    <person id="16" depart="80.00">
        <walk edges="221119202#1 221119202#0 221119203#2 221119203#1 221119203#0 45051066 143769305 45886022 198044382#3 198044382#2 198044382#1 -5171333#1 -5171333#0 -143769306#1 143769303 4483892#0 4483892#1 4483892#2 381215016 4483893#0 892553107 987846921 894981821#2 892553114#2 894981816#4 894981816#3 894981818 892553118 892553116#0 894981815"/>
    </person>
    <person id="17" depart="85.00">
        <walk edges="1175931567#1 -28891919#1 -28891919#2 1175931569#0 1175931570#0 1175931568#1 4548200#0 -4548200#1 -4548200#2 -4548200#3 4548200#4 45073977#0 45073977#1 726172047 4677319#3 4677319#1 4677319#0 -1089452022#4 -1089452022#5 -4745074 990894174 20448023 -20448005#0 -20448005#1 -20448005#2 -20448005#3 -20448005#4 20448005#6 -20448005#7 744750261#0 744750261#1 744750261#2 744750260#1 1106121183#4 1106121183#3 307803060#1 307803060#0 -23605441 23605440#0 -45073629#0 20279762#11 23605437#1 23605437#2 23605437#3"/>
    </person>
    <person id="18" depart="90.00">
        <walk edges="4981584#1 170316987 45360887#0 4799544 384188710 4799015 384189461 384189457 384186891#3 -384186891#2 -384186891#1 384186891#0 384185253 444472194 -968763903#0 -4745020#0 968763901 203031430#0 430737809#1 430737809#0 1047548239#1 164500951 1136445712#0 1136445712#1 1136445727#0 1136445721 1136445726 1136445710#0 1136445731#1 1136445732#0 1136445732#1 1136445723 1136445733 4827884#1 4827884#0 -1136445706#0 -1136445706#1 -209263690#0 -209263690#1 381212407#1 381212407#0 381202309#4 381202309#3 381202309#2 381202309#1 381202309#0 381202308#4 381202308#3 388878072 177621732 177621727#1 177621727#0 177621728 177621730 388878073 381202308#0 25260617 381215016 4483893#0 892553107 987846921 894981821#2 892553114#2 894981816#4 894981816#3 894981818 892553118 892553116#0 892553116#1 987846923 892553115 45051130 204790849 47168897#1 47168897#0 -4627827 -198642280#0 -198642280#1 -198969727#1 -198044378#1 -198044378#2 4787473#0 145781025 4787475#0 58169416 4677320#0 4677320#1 -58648676#0 -116370232 -116370222 -116370230#2 -116370230#1 -116370230#0 -116370200 -22287201 37943342#1"/>
    </person>
    <person id="19" depart="95.00">
        <walk edges="58648676#6 58648676#5 -58648676#4 -58648676#3 -58648676#2 -58648676#1 -58648676#0 4677320#1 4677320#0 4677319#3 4677319#1 4677319#0 -1089452022#4 -1089452022#5 -4745074 990894174 20448023 -20448005#0 -20448005#1 -20448005#2 -20448005#3 -20448005#4 20448005#6 -20448005#7 744750261#0 744750261#1 744750261#2 744750260#1 1106121183#4 1106121183#3 307803060#1 1106121183#1 744750269 744750270 744750271 744750272 23605442#1 23605432 23605433#0 23605423#0 23605423#1 23605423#2 -23605426 78334965#2 78334965#1 -78334965#0 -23605424 -45073628#0 -20279756#0 -20279756#1 20279756#2 20279756#3 1157030914 26303873 1155343543 1155343546 1155343542#1 1155343542#0 1155343547 1155343541#1 1155343541#0 1155343539 1155343540 26303874#3"/>
    </person>
    <person id="20" depart="100.00">
        <walk edges="45073977#1 4548209#0 -28776342#1 -106789814 -4494912#3 -4494912#2 -4494912#1 -4494912#0 4494911#4 4991162 -116391676#0 -116391676#1 -116391676#2 753339805 753339806 185139229 -4497322#1 736602522 736602523 195637610 4494909#4 4494909#5 4494909#6 -30133049 -736162066 -736162065#0 -736162065#1 289774423 736162072 736301902 381207142#4 736254762 736254763 4497327 -381202305#3 13444211#1 13444211#0 13444210#1 13444210#0 45885962 45885961 -4476790#1 26403933#2 24375800#0 24375800#1 4644887 205833528#0 205833528#1 205833528#3 45051050#0 8746406#0 -134943177"/>
    </person>
    <person id="21" depart="105.00">
        <walk edges="-677579396#1 20279754 4839473#2 -4839473#3 -23863005#0 121929400 121929406#1 23605427#2 23605428 20279762#1 121929412#2 121929412#1 121929412#0 121929411#2 -45359877#0 45073629#5 23605442#1 744750272 744750271 744750270 744750269 744750267 77663265#0 1106121183#3 1106121183#4 744750260#1 744750261#2 744750261#1 744750261#0 196934179#3 196934179#2 206988792#1 206988792#0 -43183919#0 -20450086 4521153#1 4521153#0 4397805 45051085 892553115 987846923 892553116#1 892553116#0 892553118 894981818 894981816#3 894981816#4 892553114#2 894981821#2 987846921 892553107 4483893#0 381215016 4483892#2 4483892#1 4483892#0 143769303 -143769306#1 -5171333#0 -5171333#1 198044382#1 198044382#2 198044382#3 42796910#0 42796910#1 42796910#2 -25701101 26403934#0 45073934 26403933#2 201700816 4642302#3 4642302#2 4642302#1 4642302#0 -1003917173 -201700815 39891023#0 -77647207 116739658#2 116739658#1 116739645 116370262#1 389802135#2 42205107#1 42205107#0 777742066#0 777742066#1 454051240#0 41863458 -35066921 -35066922#0 35066923 534200273#0 534200273#1 10111730#2 -10111730#0 133917371 133632797#2 -53804609#0 10111716#8 -10111716#7 10111716#6 10111716#5 10111716#4 10111716#3 10111716#2 -10111716#1 10111716#0 10111713#9 876572395#0 -876572395#1 10111712#0 10111712#1"/>
    </person>
    <person id="22" depart="110.00">
        <walk edges="-20279755#1 677579393#0 677579393#1 -677579398 -677579394 -20279753#2 20279753#1 -20279753#0 732295445#5 -732295445#6 732295445#7 20279748 -20279749 -250478229#0 -250478229#1 -250478229#2 -723812724#0 723812725#0 723812725#1 723812725#2 -723812725#3"/>
    </person>
    <person id="23" depart="115.00">
        <walk edges="-23802666#0 4764309#1 4764309#2 102058907 102058910#0 102058910#1 4876189 4876190#3 9702643#0 9702643#1 -93256779#2"/>
    </person>
    <person id="24" depart="120.00">
        <walk edges="384189457 384186891#3 -384186891#2 -384186891#1 384186891#0 384185253 444472194 -968763903#0 -4745020#0 968763901 203031430#0 430737809#1 430737809#0 1047548239#1 164500951 1136445712#0 1136445712#1 1136445727#0 1136445721 1136445726 1136445710#0 1136445731#1 1136445724 1136445734 198642284#3 198642284#2 707455180 707455179 707455178 707455175#0 26303664#1 133372587#1 133372587#2 707455194#5 750592070#1 750592070#0 133372576#0 133372585#0 133372585#1 707455193 209263691#0 199863044#2 199863044#1 199863044#0 4570715 45051125#2 45051125#1 45051125#0 -28380058#0 -28380058#1 -28380058#2 -4628076 -196934179#0 196934179#1 196934179#2 196934179#3 -196934179#6 -196934179#7 -196934179#8 997592566 997592565#2 997592565#1 997592565#0 23863004#4 -196934179#11 -196934179#12 -143784301#0 -143784301#1 -143784301#2 -143784301#3 -143784301#4 -425184482#0 -156536760#1 -156536760#2 1103822693 164500948#1 164500948#0 239811653 -706496749#0 706496749#1 -706496749#2 115894400#1"/>
    </person>
    <person id="25" depart="125.00">
        <walk edges="116370230#0 -116370230#1 -116370230#2 -116370222 -116370232 -58648676#1 -58648676#2 4494913#3 -4494913#4 -4494913#5 -4494913#6 -4494913#7 -4494913#8 -4494913#9 -4494913#10 -4494913#11 -4494913#12 -4475215#0 -4475215#1 4475215#2 -4475215#4 -4475215#5 115316688 115316720 115316679#0 139166560 -115316726#1 -115316726#0 -4991182#2 -4991182#3"/>
    </person>
    <person id="26" depart="130.00">
        <walk edges="-8751310#0 8751310#1 -8751310#3 8751310#4 8751310#5 134939938 -8752620#8 -8752620#7 4750189#4 4750189#5 205820315 205820313 204866197#0 204866197#2 361218133 4644901 5003551#0 -45359294#3 45359294#1 203031430#1 203031430#0 430737809#1 430737809#0 679761827 116508841#1 1047548235 45359121#1 -4904145 -4904139#1 771830042#0 771830042#1 -805924784#0 805924785"/>
    </person>
    <person id="27" depart="135.00">
        <walk edges="388878635 388878636 361218133 361266045#1 361266045#0 221119201 417316667#5 4644890#2 -8752620#5 345054311"/>
    </person>
    <person id="28" depart="140.00">
        <walk edges="-4548297#1 -4548297#2 4548297#3 -4844458#3 -4844458#2 -4844459#1 -4844459#0 -4494926#10 -4494926#7 -4494926#5 -4494926#4 -4494926#3 -4494926#2 -4494926#1 172206444#0 172206444#1 172206444#2 -4844450#0 -4677446#1 -172206441 -58648676#7 4844447#0 4844448 4844446#1 -4844446#0 -4494913#4 58169647#1 58169647#0 22287197 -4638062#1 -4638062#0 4981556#4 4981556#3 4981556#1 4981556#0 -1088915061 -20448005#0 -20448005#1 -20448005#2 -20448005#3 -20448005#4 20448005#6 -20448005#7 744750261#0 744750261#1 744750261#2 744750260#1 1106121183#4 1106121183#3 307803060#1 1106121183#1 744750269 744750270 744750271 744750272 23605442#1 23605432 23605433#0 23605423#0 20279762#5 20279762#6 121929395#0 121929395#1 121929395#2 121929395#3 121929413#1 121929389 -45073628#5 143927419 -23605439 4839472#1 4470839#0 4470839#1 -4470839#2 4470839#3 -4470839#4 -45773042#0 45787318#1 45787318#0 383167848 45362089#0 45362090#0 45568795#2 45568795#1 45568794"/>
    </person>
    <person id="29" depart="145.00">
        <walk edges="-45359120#0 4904147 4904187#0 202830393 116508841#0 679761827 1047548239#1 164500951 1136445712#0 1136445712#1 1136445727#0 1136445721 1136445726 1136445710#0 1136445731#1 1136445732#0 1136445732#1 1136445723 1136445733 4827884#1 4827884#0 -1136445706#0 -1136445706#1 -209263690#0 -209263690#1 381212407#1 381212407#0 381202309#4 381202309#3 381202309#2 381202309#1 381202309#0 381202308#4 381202308#3 388878072 177621732 177621727#1 177621727#0 177621728 177621730 388878073 381202308#0 25260617 381215016 4483893#0 892553107 987846921 894981821#2 892553114#2 894981816#4 894981816#3 894981818 892553118 892553116#0 892553116#1 987846923 892553115 45051130 204790849 47168897#1 47168897#0 4494909#8 4494909#7 4494909#6 4494909#5 4494909#4 4494909#3 4494909#2 4494909#1 4494909#0 4494911#0 4494911#1 4494911#2 45405496 115418075 291947057#1 115418103 45073976#1 -45073976#0 -206317572 655636412 4548210#2 4548210#1 4548210#0 4548200#4 -4548200#3 -4548200#2 -4548200#1 4548200#0 1175931568#1 1175931570#0"/>
    </person>
    <person id="30" depart="150.00">
        <walk edges="977024102#1 205833528#1 205833528#0 4644887 24375800#1 24375800#0 26403933#2 -4476790#1 45885961 45885962 13444210#0 13444210#1 13444211#0 13444211#1 -381202305#3 4497327 736254763 736254762 381207142#4 381207142#5 381207142#6 4494909#8 -4627827 -198642280#0 -198642280#1 -198969727#1 -198044378#1 -198044378#2 -198044378#3 -198044378#4 -1089452022#5 -1089452022#4 -1089452022#3 -1089452022#2 -1089452022#0 47168895#1 47168895#0 -4494913#6 -4494913#7 -4494913#8 -4494913#9 -4494913#10 -4494913#11 -4494913#12 -685023881#0 -685023881#1 685023881#3 -4991184#1 -4991184#0 115319848#1 115319848#0 387163225 387163224#1"/>
    </person>
    <person id="31" depart="155.00">
        <walk edges="23802666#0 8751900#2 8751900#3 -131860123#0 -8746402 389792574 8746401#0 8746401#1 8746401#2 8746401#3 581609404#1 581609404#2 581609404#5 581609404#6 581609404#7 26403934#0 -25701101 42796910#2 42796910#1 42796910#0 198044382#3 198044382#2 198044382#1 -5171333#1 -5171333#0 -143769306#1 143769303 4483892#0 4483892#1 4483892#2 381215016 4483893#0 4483893#2 4483893#3"/>
    </person>
    <person id="32" depart="160.00">
        <walk edges="527034495 4567177 4497326#2 4497326#1 4497326#0 42796910#3 42796910#2 42796910#1 42796910#0 198044382#3 198044382#2 198044382#1 198044382#0 45049553 221112638 4573820#1 4573820#0 46549966#1 46549966#0 198044386#1 198044386#0 4644892 4644888#1 4644888#0 4644890#3 4644890#2 4644890#1 4644890#0 4745019#1 4745019#2 4745019#3 4745019#4 4745019#5 4745019#6"/>
    </person>
    <person id="33" depart="165.00">
        <walk edges="-685023881#1 -685023881#0 -4521152#2 -4521152#1 -4521152#0 -1088915060#0 -1088915061 4521153#2 4521153#1 4521153#0 4397805 45051085 892553115 987846923 892553116#1 892553116#0 892553118 894981818 894981816#3 894981816#4 892553114#2 894981821#2 987846921 892553107 4483893#0 381215016 25260617 381202308#0 388878073 177621730 177621728 177621727#0 177621727#1 177621732 388878072 381202308#3 381202308#4 -4627829#0 -4627829#1 417313760#0 417313760#1 144176630#0 -118642187#0"/>
    </person>
    <person id="34" depart="170.00">
        <walk edges="102666707 102666690#0 102637692 4745073#2 -4745073#0 -4778498#2 -4778498#1 -4778498#0 20448005#6 -20448005#7 196934179#3 196934179#2 196934179#1 -196934179#0 -4628076 4787501#0 4787501#1 4542288 4778497 -45074531 745391452 114324471 -4627829#0 -4627829#1 417313760#0 417313760#1 417316667#0 417316667#1 417316667#2 417316667#3 417316667#4 417316667#5 4644890#2 -8752620#5 -8752620#6 -8752620#7 -8752620#8 134939938 -8751310#5"/>
    </person>
    <person id="36" depart="180.00">
        <walk edges="691210530 115908024 4642304#3 721037390 4642302#0 4642302#1 4642302#2 4642302#3 201700816 26403933#2 45073934 26403934#0 -25701101 42796910#2 42796910#1 42796910#0 198044382#3 198044382#2 198044382#1 -5171333#1 -5171333#0 -143769306#1 143769303 4483892#0 4483892#1 4483892#2 381215016 4483893#0 892553107 987846921 894981821#2 892553114#2 894981816#4 894981816#3 894981818 892553118 892553116#0 892553116#1 987846923 892553115 45051085 4397805 4521153#0 4521153#1 4521153#2 -20448005#0 -20448005#1 -20448005#2 -20448005#3 -20448005#4 -4778498#0 -4778498#1 -4778498#2 -4745073#0 182915558#0 182915558#1 102666692 102666701#0"/>
    </person>
    <person id="37" depart="185.00">
        <walk edges="389402414#3 389402416#3 4589099#2 4589099#3 4589099#4 164087247#0 -8073923#0 5137042 4548444 45403676#0 28892129#1 4862551#0 4862551#1 4862551#2 4717600#0 4717600#1 4717600#2 116370208 -4717602#0 -4717602#1 99796055 380962599#0 -380962601 45073976#1 115418103 291947057#1 115418075 45405496 4494911#3 4991162 -116391676#0 -116391676#1 -116391676#2 -116391676#3 -116391676#4 4787454#2 -198969727#1 -198044378#1 -198044378#2 -198044378#3 -198044378#4 -4745074 990894174 20448023 -20448005#0 -20448005#1 -20448005#2 -20448005#3 -20448005#4 20448005#6 -20448005#7 744750261#0 744750261#1 744750261#2 744750260#1 1106121183#4 1106121183#3 307803060#1 1106121183#1 744750269 744750270 744750271 744750272 23605442#1 -45073629#5 -45359877#0 121929411#2 121929412#0 121929412#1"/>
    </person>
    <person id="38" depart="190.00">
        <walk edges="744750272 23605442#1 -45073629#5 -45359877#0 121929411#2 121929412#0 121929412#1 121929412#2 20279762#1 23605428 23863006#0 23863006#1 23863006#2 23863006#3 45839039#5 167639665#0"/>
    </person>
    <person id="39" depart="195.00">
        <walk edges="-839276051 -20279753#1 -20279753#2 -677579396#1 20279754 4839473#2 -4839473#3 -23863005#0 121929400 121929406#1 23605427#2 23605428 20279762#1 121929412#2 121929412#1 121929412#0 121929411#2 -45359877#0 45073629#5 23605442#1 744750272 744750271 744750270 744750269 1106121183#1 307803060#1 1106121183#3 1106121183#4 744750260#1 744750261#2 744750261#1 744750261#0 196934179#3 196934179#2 206988792#1 206988792#0 -43183919#0 -20450086 4991165#2 4683301#1 4683301#2 4683301#3 -736611808"/>
    </person>
    <person id="40" depart="200.00">
        <walk edges="23863002#0 103741995#0 103741995#1 23863004#0 23863004#1 23863004#2 997592563#0 997592561#1 997592562#0 997592562#1 997592562#2 997592565#0 23863004#4 -196934179#11 -196934179#12 -143784301#0 -143784301#1 -143784301#2 -143784301#3 -143784301#4 -77664375#3 -77664375#2 -77664375#1 -77664375#0 437898935 147564999 437898938 -685023881#1 -685023881#0 -4494913#12 -4494913#11 -4494913#10 -4494913#9 -4494913#8 -4494913#7 -4494913#6 -4494913#5 -4494913#4 4494913#3 -4494913#2 -4494913#1 -4494913#0 595233510 4741290 -83607382#8 -83607382#6 -83607382#5 -83607382#3 83607382#2 -83607382#1 -83607382#0"/>
    </person>
    <person id="41" depart="205.00">
        <walk edges="28072796#3 4296031#9 32565783#0 226151434 257885010#2 257885008#2 -4798846#1 -4798846#0 221119202#1 221119202#0 221119203#2 221119203#1 221119203#0 45051066 143769305 45886022 4764294#2 4764294#1 4764294#0 4953268#2 4953268#1 4953268#0 204790849 47168897#1 47168897#0 4494909#8 4494909#7 4494909#6 4494909#5 4494909#4 4494909#3 4494909#2 4494909#1 4494909#0 4494911#0 4494911#1 4494911#2 45405496 115418075 291947057#1 115418103 45073976#1 -45073976#0 -206317572 655636412 4548210#2 4548210#1 4548210#0 4548200#4 -4548200#3 -4548200#2 -4548200#1 4548200#0 1175931568#1 1175931570#0 1175931569#0 1089451382#0 1089451382#1 731204876 731204875 731204877#0 731204877#1"/>
    </person>
    <person id="42" depart="210.00">
        <walk edges="123759262 123759259 123759261 26303666 26303665 707455175#1 707455175#0 26303664#1 133372587#1 133372587#2 707455194#5 750592070#1 750592070#0 133372576#0 133372585#0 133372585#1 707455193 209263691#0 199863044#2 199863044#1 199863044#0 4570715 45051125#2 45051125#1 45051125#0 -28380058#0 -28380058#1 -28380058#2 -4628076 4683300#1 4683300#0 45051129 -4683299 -198969727#1 -4787455#0 -4787455#1 -417415066 -99798486 -206317572 655636412 4548210#2 4548210#1 4548210#0 4548200#4 -4548200#3 -4548200#2 55702656 -55702653#8 -55702653#7 -55702653#6 -55702653#5 -55702653#4"/>
    </person>
    <person id="43" depart="215.00">
        <walk edges="997592562#2 997592562#1 997592562#0 997592561#1 997592563#0 23863004#2 23863004#1 23863004#0 -96646975#0 96646975#1 -96646975#2 -23605431#0 23605431#1 23605433#2 20279762#4 20279762#5 20279762#6 20279762#7 20279762#8 20279762#9 20279762#10 20279762#11"/>
    </person>
    <person id="44" depart="220.00">
        <walk edges="-209263690#0 -209263690#1 381212407#1 381212407#0 381202309#4 381202309#3 381202309#2 381202309#1 381202309#0 381202308#4 381202308#3 388878072 177621732 177621727#1 177621727#0 177621728 177621730 388878073 381202308#0 25260617 381215016 4483893#0 892553107 987846921 894981821#2 892553114#2 894981816#4 894981816#3 894981818 892553118 892553116#0 892553116#1 987846923 892553115 45051130 204790849 47168897#1 47168897#0 -4627827 -198642280#0 -198642280#1 -198969727#1 -198044378#1 -198044378#2 4787473#0 145781025 4787475#0 58169416 4677320#0 4677320#1 -58648676#0 -58648676#1 -58648676#2 -58648676#3 -58648676#4 58648676#5 -58648676#6 -58648676#7 -172206441 -4677446#1 -4844450#0 172206444#2 172206444#1 172206444#0 -4494926#1 -4494926#2 -4494926#3 -4494926#4 -4494926#5 -4494926#7 -4844455#0 -25739953#1 -137734709"/>
    </person>
    <person id="45" depart="225.00">
        <walk edges="-26303874#0 1155343545 1155343542#1 1155343546 1155343543 26303873 -26303872 20279746#3 20279746#2 20279746#1 20279746#0 210429351#1 -210429351#0 45051111#1 -45051111#0 -28380058#0 -28380058#1 -28380058#2 185136473 185136472 45074530 37607624#0 -37607624#1 225910569 892574652#4 892574652#3 892553114#3 894981816#4 894981816#3 894981818 892553118 892553116#0 892553116#1 987846923 892553115 45051130 204790849 47168897#1 381207142#0 381207142#1"/>
    </person>
    <person id="46" depart="230.00">
        <walk edges="4778498#0 -20448005#4 -20448005#3 -20448005#2 -20448005#1 -20448005#0 4521153#2 4521153#1 4521153#0 4397805 45051085 892553115 987846923 892553116#1 892553116#0 892553118 894981818 894981816#3 894981816#4 892553114#2 894981821#2 987846921 892553107 4483893#0 381215016 4483892#2 4483892#1 4483892#0 143769303 -143769306#1 -5171333#0 -5171333#1 198044382#1 198044382#2 198044382#3 42796910#0 42796910#1 42796910#2 -25701101 26403934#0 45073934 26403933#2 201700816 4642302#3 4642302#2 4642302#1 4642302#0 -1003917173 -201700815 39891023#0 -77647207 116739658#2 116739658#1 116739645 116370262#1 389802135#2 42205107#1 42205107#0 777742066#0 777742066#1 454051240#0 41863458 -35066921 -35066922#0 35066923 534200273#0 534200273#1 10111730#2 -10111730#0 133917371 133632797#2 -53804609#0 10111719#0 10111719#2 10111719#3 133917373#2"/>
    </person>
    <person id="47" depart="235.00">
        <walk edges="-185805435#0 185805435#0 4844452#0 -172206437#1 172206437#0 -4677446#1 -4844449#1 4844449#2 8119016#1 414108875#2 414108875#1 414108875#0 491305324#1 -125072553#4 28891842#0 26350819#0 26350819#2 8073926#0 8073926#2 8073926#3 8073926#4 45105826#0 45105826#1 -595322020#2 1175931576#1 1175931575#1"/>
    </person>
    <person id="48" depart="240.00">