<?xml version="1.0" encoding="UTF-8"?>

<!-- generated on 2023-06-01 14:32:41.731483 by randomTrips.py v1_17_0+0000-737931d58da
<configuration>
    <net-file value="glasgow.net.xml"/>
    <output-trip-file value="ped_trips.xml"/>
    <route-file value="ped_routes.rou.xml"/>
    <pedestrians value="True"/>
    <end value="600"/>
    <period value="5.0"/>
</configuration>
-->

<routes xmlns:xsi="http://www.w3.org/2001/XMLSchema-instance" xsi:noNamespaceSchemaLocation="http://sumo.dlr.de/xsd/routes_file.xsd">
    <person id="0" depart="0.00">
        <walk from="387404622" to="-116370230#2"/>
    </person>
    <person id="1" depart="5.00">
        <walk from="-890778748#1" to="-595322020#2"/>
    </person>
    <person id="2" depart="10.00">
        <walk from="4627826" to="438870190"/>
    </person>
    <person id="3" depart="15.00">
        <walk from="727965599" to="-20466083#1"/>
    </person>
    <person id="4" depart="20.00">
        <walk from="133917374" to="-1175931591#0"/>
    </person>
    <person id="5" depart="25.00">
        <walk from="-55702653#3" to="20279755#0"/>
    </person>
    <person id="6" depart="30.00">
        <walk from="-116391676#0" to="-4865970#0"/>
    </person>
    <person id="7" depart="35.00">
        <walk from="389287227#2" to="233537356"/>
    </person>
    <person id="8" depart="40.00">
        <walk from="-581608796#1" to="28891695#2"/>
    </person>
    <person id="9" depart="45.00">
        <walk from="48610084#0" to="-101519062"/>
    </person>
    <person id="10" depart="50.00">
        <walk from="4844457#1" to="45051124#1"/>
    </person>
    <person id="11" depart="55.00">
        <walk from="1120168311" to="-45073628#0"/>
    </person>
    <person id="12" depart="60.00">
        <walk from="8752620#4" to="1103822694"/>
    </person>
    <person id="13" depart="65.00">
        <walk from="-219671015" to="-23605430#2"/>
    </person>
    <person id="14" depart="70.00">
        <walk from="547497991" to="325815771"/>
    </person>
    <person id="15" depart="75.00">
        <walk from="4844459#1" to="4570715"/>
    </person>
    <person id="16" depart="80.00">
        <walk from="221119204#0" to="894981813"/>
    </person>
    <person id="17" depart="85.00">
        <walk from="1175931566#0" to="23605440#0"/>
    </person>
    <person id="18" depart="90.00">
        <walk from="4991163" to="380618974#3"/>
    </person>
    <person id="19" depart="95.00">
        <walk from="588506827" to="26303895#1"/>
    </person>
    <person id="20" depart="100.00">
        <walk from="4521152#0" to="-137745894#0"/>
    </person>
    <person id="21" depart="105.00">
        <walk from="-677579400" to="10111712#0"/>
    </person>
    <person id="22" depart="110.00">
        <walk from="-20279759#2" to="-723812725#4"/>
    </person>
    <person id="23" depart="115.00">
        <walk from="-23862996#2" to="-93256779#2"/>
    </person>
    <person id="24" depart="120.00">
        <walk from="384218092#1" to="115894396#2"/>
    </person>
    <person id="25" depart="125.00">
        <walk from="116370226" to="-4991182#6"/>
    </person>
    <person id="26" depart="130.00">
        <walk from="-8751310#0" to="8073108#1"/>
    </person>
    <person id="27" depart="135.00">
        <walk from="389130862#1" to="35066916"/>
    </person>
    <person id="28" depart="140.00">
        <walk from="-4548297#6" to="45570241"/>
    </person>
    <person id="29" depart="145.00">
        <walk from="-45359120#4" to="1175931568#1"/>
    </person>
    <person id="30" depart="150.00">
        <walk from="977024101#1" to="387404630"/>
    </person>
    <person id="31" depart="155.00">
        <walk from="23802666#5" to="4494909#1"/>
    </person>
    <person id="32" depart="160.00">
        <walk from="532504152#0" to="4745045#0"/>
    </person>
    <person id="33" depart="165.00">
        <walk from="-69067227" to="-119504356"/>
    </person>
    <person id="34" depart="170.00">
        <walk from="102666704" to="-8751310#6"/>
    </person>
    <person id="35" depart="175.00">
        <walk from="-5137046#0" to="82759381"/>
    </person>
    <person id="36" depart="180.00">
        <walk from="706496748#0" to="102666699"/>
    </person>
    <person id="37" depart="185.00">
        <walk from="389402416#3" to="121929411#2"/>
    </person>
    <person id="38" depart="190.00">
        <walk from="744750279" to="167639671#1"/>
    </person>
    <person id="39" depart="195.00">
        <walk from="-840062940#0" to="-736611809"/>
    </person>
    <person id="40" depart="200.00">
        <walk from="23863004#1" to="-83607382#1"/>
    </person>
    <person id="41" depart="205.00">
        <walk from="28380058#1" to="732295445#0"/>
    </person>
    <person id="42" depart="210.00">
        <walk from="123759260" to="-55702653#7"/>
    </person>
    <person id="43" depart="215.00">
        <walk from="997592562#2" to="20279762#7"/>
    </person>
    <person id="44" depart="220.00">
        <walk from="-216664506#1" to="-139585856"/>
    </person>
    <person id="45" depart="225.00">
        <walk from="-26303895#1" to="381212407#5"/>
    </person>
    <person id="46" depart="230.00">
        <walk from="4787473#0" to="133917375"/>
    </person>
    <person id="47" depart="235.00">
        <walk from="-185807604#0" to="1175931574#0"/>
    </person>
    <person id="48" depart="240.00">
        <walk from="995103496" to="216664510"/>
    </person>
    <person id="49" depart="245.00">
        <walk from="892574651" to="58648676#7"/>
    </person>
    <person id="50" depart="250.00">
        <walk from="-1061889159" to="45362090#0"/>
    </person>
    <person id="51" depart="255.00">
        <walk from="4475215#8" to="221119204#4"/>
    </person>
    <person id="52" depart="260.00">
        <walk from="-8751310#0" to="387428513#0"/>
    </person>
    <person id="53" depart="265.00">
        <walk from="-28379982#0" to="143769306#2"/>
    </person>
    <person id="54" depart="270.00">
        <walk from="166140983#0" to="8751893#1"/>
    </person>
    <person id="55" depart="275.00">
        <walk from="706237725#1" to="-83607382#5"/>
    </person>
    <person id="56" depart="280.00">
        <walk from="200771960" to="-4744976#0"/>
    </person>
    <person id="57" depart="285.00">
        <walk from="744750265#1" to="677579396#1"/>
    </person>
    <person id="58" depart="290.00">
        <walk from="101519055#1" to="387378724"/>
    </person>
    <person id="59" depart="295.00">
        <walk from="35066915#1" to="-4494926#4"/>
    </person>
    <person id="60" depart="300.00">
        <walk from="472995220#1" to="225913257"/>
    </person>
    <person id="61" depart="305.00">
        <walk from="4745075#0" to="217363066#2"/>
    </person>
    <person id="62" depart="310.00">
        <walk from="-10111713#1" to="1049594965"/>
    </person>
    <person id="63" depart="315.00">
        <walk from="-114721092#5" to="77664306#2"/>
    </person>
    <person id="64" depart="320.00">
        <walk from="707455178" to="4991182#6"/>
    </person>
    <person id="65" depart="325.00">
        <walk from="1025277272" to="-172206437#4"/>
    </person>
    <person id="66" depart="330.00">
        <walk from="707455175#0" to="840062940#1"/>
    </person>
    <person id="67" depart="335.00">
        <walk from="-20448005#7" to="192671952#1"/>
    </person>
    <person id="68" depart="340.00">
        <walk from="-19080750" to="472995007#1"/>
    </person>
    <person id="69" depart="345.00">
        <walk from="4741291#1" to="-355543559#0"/>
    </person>
    <person id="70" depart="350.00">
        <walk from="185807604#2" to="23605433#2"/>
    </person>
    <person id="71" depart="355.00">
        <walk from="-840062940#1" to="69067207#0"/>
    </person>
    <person id="72" depart="360.00">
        <walk from="13444212#1" to="-5170104"/>
    </person>
    <person id="73" depart="365.00">
        <walk from="225912355" to="4573820#0"/>
    </person>
    <person id="74" depart="370.00">
        <walk from="-4903953#1" to="102666681#0"/>
    </person>
    <person id="75" depart="375.00">
        <walk from="987846921" to="389287227#2"/>
    </person>
    <person id="76" depart="380.00">
        <walk from="144176630#3" to="20448023"/>
    </person>
    <person id="77" depart="385.00">
        <walk from="-30161702#0" to="-642758403"/>
    </person>
    <person id="78" depart="390.00">
        <walk from="1106121183#5" to="28776351#2"/>
    </person>
    <person id="79" depart="395.00">
        <walk from="-723613775#1" to="-581608796#0"/>
    </person>
    <person id="80" depart="400.00">
        <walk from="-196934179#10" to="384185251"/>
    </person>
    <person id="81" depart="405.00">
        <walk from="-69067227" to="736308367#1"/>
    </person>
    <person id="82" depart="410.00">
        <walk from="58648676#0" to="-196934179#1"/>
    </person>
    <person id="83" depart="415.00">
        <walk from="-727833913#6" to="41863458"/>
    </person>
    <person id="84" depart="420.00">
        <walk from="-5171332#3" to="-381202305#0"/>
    </person>
    <person id="85" depart="425.00">
        <walk from="78413636#1" to="257885010#1"/>
    </person>
    <person id="86" depart="430.00">
        <walk from="185136473" to="4750193#0"/>
    </person>
    <person id="87" depart="435.00">
        <walk from="485899786" to="-4844446#0"/>
    </person>
    <person id="88" depart="440.00">
        <walk from="-23605431#0" to="139166567"/>
    </person>
    <person id="89" depart="445.00">
        <walk from="134680187#1" to="176934504#1"/>
    </person>
    <person id="90" depart="450.00">
        <walk from="45570240#2" to="4296031#6"/>
    </person>
    <person id="91" depart="455.00">
        <walk from="96646975#0" to="-23706683#1"/>
    </person>
    <person id="92" depart="460.00">
        <walk from="130679979" to="1117207664"/>
    </person>
    <person id="93" depart="465.00">
        <walk from="588506827" to="-746730892"/>
    </person>
    <person id="94" depart="470.00">
        <walk from="-4839478#3" to="16282109"/>
    </person>
    <person id="95" depart="475.00">
        <walk from="133917373#4" to="-93269804#1"/>
    </person>
    <person id="96" depart="480.00">
        <walk from="-753393452#1" to="767655535"/>
    </person>
    <person id="97" depart="485.00">
        <walk from="149271952" to="58650205"/>
    </person>
    <person id="98" depart="490.00">
        <walk from="23605434#2" to="-143784301#4"/>
    </person>
    <person id="99" depart="495.00">
        <walk from="997592565#3" to="5171318#0"/>
    </person>
    <person id="100" depart="500.00">
        <walk from="892553119" to="77658164#1"/>
    </person>
    <person id="101" depart="505.00">
        <walk from="547497996#1" to="-45359877#6"/>
    </person>
    <person id="102" depart="510.00">
        <walk from="192671951#1" to="-5171332#0"/>
    </person>
    <person id="103" depart="515.00">
        <walk from="128273509" to="-173988311"/>
    </person>
    <person id="104" depart="520.00">
        <walk from="1175931567#0" to="968763898#1"/>
    </person>
    <person id="105" depart="525.00">
        <walk from="-840062940#1" to="4750190#1"/>
    </person>
    <person id="106" depart="530.00">
        <walk from="167639652" to="13444212#1"/>
    </person>
    <person id="107" depart="535.00">
        <walk from="8752620#5" to="987846923"/>
    </person>
    <person id="108" depart="540.00">
        <walk from="23706736" to="45360504#2"/>
    </person>
    <person id="109" depart="545.00">
        <walk from="-45073568#0" to="101513474#0"/>
    </person>
    <person id="110" depart="550.00">
        <walk from="892553118" to="26350819#2"/>
    </person>
    <person id="111" depart="555.00">
        <walk from="226578079" to="4644902#3"/>
    </person>
    <person id="112" depart="560.00">
        <walk from="-169116507#1" to="28379982#1"/>
    </person>
    <person id="113" depart="565.00">
        <walk from="20279746#1" to="55702653#3"/>
    </person>
    <person id="114" depart="570.00">
        <walk from="-45073629#5" to="888234303"/>
    </person>
    <person id="115" depart="575.00">
        <walk from="-20279759#4" to="-4778498#1"/>
    </person>
    <person id="116" depart="580.00">
        <walk from="28892129#0" to="437898935"/>
    </person>
    <person id="117" depart="585.00">
        <walk from="-723812734#1" to="-30023799#0"/>
    </person>
    <person id="118" depart="590.00">
        <walk from="727833913#0" to="-736311239"/>
    </person>
    <person id="119" depart="595.00">
        <walk from="28891937#3" to="380809596"/>
    </person>
</routes>
