<?xml version="1.0" encoding="UTF-8"?>

<!-- generated on 2023-06-01 14:32:43.864217 by randomTrips.py v1_17_0+0000-737931d58da
<configuration>
    <net-file value="glasgow.net.xml"/>
    <output-trip-file value="ped_trips.xml"/>
    <route-file value="ped_routes.rou.xml"/>
    <pedestrians value="True"/>
    <end value="600"/>
    <period value="5.0"/>
</configuration>
-->

<!-- generated on 2023-06-01 14:32:42 by Eclipse SUMO duarouter Version 1.17.0
<configuration xmlns:xsi="http://www.w3.org/2001/XMLSchema-instance" xsi:noNamespaceSchemaLocation="http://sumo.dlr.de/xsd/duarouterConfiguration.xsd">

    <input>
        <net-file value="glasgow.net.xml"/>
        <route-files value="ped_trips.xml"/>
    </input>

    <output>
        <output-file value="ped_routes.rou.xml"/>
        <alternatives-output value="NUL"/>
    </output>

    <time>
        <begin value="0"/>
        <end value="600"/>
    </time>

    <report>
        <no-warnings value="true"/>
        <ignore-errors value="true"/>
        <no-step-log value="true"/>
    </report>

</configuration>
-->

<routes xmlns:xsi="http://www.w3.org/2001/XMLSchema-instance" xsi:noNamespaceSchemaLocation="http://sumo.dlr.de/xsd/routes_file.xsd">
    <person id="1" depart="5.00">
        <walk edges="-890778748#1 -890778749 890778752 889984800#1 890778751 -26303876 -26303875 26303874#3 1155343540 1155343539 1155343541#0 1155343541#1 1155343547 1155343542#0 1155343542#1 1155343546 1155343543 26303873 1157030914 20279756#3 20279756#2 20279756#1 -20279756#0 45073628#0 23605424 -78334965#0 78334965#1 78334965#2 23605426 23605423#2 23605423#1 23605423#0 23605433#0 -23605432 23605442#1 744750272 744750271 744750270 744750269 1106121183#1 307803060#1 1106121183#3 1106121183#4 744750260#1 744750261#2 744750261#1 744750261#0 20448005#7 20448005#6 20448005#4 -20448005#3 20448005#2 -20448005#1 -20448005#0 20448023 990894174 -4745074 -1089452022#5 1089452022#4 4677319#0 4677319#1 4677319#3 726172047 45073977#1 45073977#0 4548200#4 982371441#0 45267135#1 982371441#2 -4548200#0 1175931568#1 1175931570#0 1175931569#0 28891919#2 -28891919#1 1175931567#1 1175931578#2 1175931577#0 -4991175#0 -595322020#2"/>
    </person>
    <person id="2" depart="10.00">
        <walk edges="4627826 380618971#1 380618971#0 380618974#0 -380618974#1 380618974#2 -380618974#3 380618974#4 -380618974#5 -380618974#6 28892129#1 45403676#0 45403676#1 -5137046#2 -730447301#1 380618972 4548443#1 735349189 735349187 151952408 4642304#0 4642304#1 4642304#2 4642304#3 721037390 -1003917173 -201700815 205819136 90682376 -203955671#0 131860123#1 131860123#0 8751900#3 8751900#2 23802666#0 23802666#1 -23802666#2 -23802666#3 -23802666#4 23802666#5 -266253852 -23706686#0 -139718604#0 139718604#1 139718604#2 78413636#1 -78413636#0 438870190"/>
    </person>
    <person id="3" depart="15.00">
        <walk edges="727965599 96646975#1 103741991#1 103741991#0 -196934179#7 196980698 196980683 196980700 182915557 102666701#0 102666692 182915558#1 182915558#0 4745073#2 4745073#3 4745073#4 286810238#0 286810238#1 286810238#2 4745075#1 4745075#0 47168895#1 47168895#0 -20466083#1"/>
    </person>
    <person id="4" depart="20.00">
        <walk edges="133917374 -93269804#6 -93269804#5 -93269804#4 -93269804#1 93269804#0 8073108#2 1014239671#1 1014239671#0 1113007292 11339907#0 4589099#3 4589099#4 164087247#0 -8073923#0 5137042 4548444 45403676#0 28892129#1 -380618974#6 -380618974#5 380618974#4 -380618974#3 380618974#2 -380618974#1 380618974#0 380618971#0 380618971#1 386617897 4760219 386617898#0 386617898#1 262604451 1175931568#1 1175931570#0 1175931569#0 1089451382#0 1089451382#1 1089451382#2 8073925#0 8073925#1 8073925#2 8073926#2 1175931591#0 -1175931591#0"/>
    </person>
    <person id="5" depart="25.00">
        <walk edges="-55702653#3 55702648 55702653#7 55702653#8 55702654#0 55702655 4548200#3 4548200#4 45073977#0 45073977#1 726172047 4677319#3 4677319#1 4677319#0 1089452022#4 -1089452022#5 4745074 990894174 20448023 20448005#0 -20448005#1 -20448005#2 -20448005#3 20448005#4 -20448005#6 20448005#7 744750261#0 744750261#1 744750261#2 744750260#1 1106121183#4 1106121183#3 307803060#1 1106121183#1 744750269 744750270 744750271 744750272 23605442#1 -45073629#5 -45359877#0 121929411#2 121929412#0 121929412#1 121929412#2 20279762#1 23605428 23605427#2 121929406#1 121929400 23863005#0 -4839473#3 20279755#2 20279755#1 20279755#0"/>
    </person>
    <person id="6" depart="30.00">
        <walk edges="-116391676#0 -116391676#1 116391676#2 116391676#3 116391676#4 4787454#1 4991163 -198642280#0 4627827 47168897#0 47168897#1 204790849 45051130 892553115 987846923 892553116#1 892553116#0 892553118 894981818 894981816#3 894981816#4 892553114#2 894981821#2 987846921 892553108#0 892553110 892553112 4787502#1 4787502#2 4787504 177621729#0 177621731 177621727#1 177621732 388878072 381202308#3 381202308#4 381202309#0 381202309#1 381202309#2 381202309#3 381202309#4 381212407#0 381212407#1 381212407#2 381212407#3 381212407#4 381212407#5 381212407#6 388878636 361218133 204866197#2 204866197#0 205820313 237046751#3 237046751#2 237046751#0 1117207664 69067221#2 69067221#1 69067221#0 4764321 4745226#1 4745226#0 4764319 -4764318#0 -4764318#1 4764318#2 4764318#3 4865966 4865968#3 -4865970#0"/>
    </person>
    <person id="7" depart="35.00">
        <walk edges="389287227#2 389287227#3 389287227#4 389287227#5 30162462 4953267#0 26403932 4474113#0 4474113#1 28776351#1 28776351#2 28776351#3 28776351#4 28776351#5 4494911#0 4494911#1 4494911#2 4494911#3 4494911#4 -4494912#0 -4494912#1 4494912#2 -4494912#3 4494912#4 -4494912#5 12682521 162901771#0 491305324#2 491305324#1 491305324#0 28891696 28891695#2 -723613775#1 233537356"/>
    </person>
    <person id="8" depart="40.00">
        <walk edges="-581608796#1 581608796#1 581608796#0 581608794 8746406#1 8746406#0 45051050#0 205833528#3 205833528#1 60840346#0 60840346#1 5171328 5171329 -90682376 -205819136 -201700815 -1003917173 4953265 4953267#1 4953267#0 26403932 4474113#0 4474113#1 28776351#1 28776351#2 28776351#3 28776351#4 28776351#5 4494911#0 4494911#1 4494911#2 4494911#3 4494911#4 -4494912#0 -4494912#1 4494912#2 -4494912#3 4494912#4 -4494912#5 12682521 162901771#0 491305324#2 491305324#1 491305324#0 28891696 28891695#2"/>
    </person>
    <person id="9" depart="45.00">
        <walk edges="48610084#0 -121017977 121017976 8746407#1 8746407#0 -8746405#0 45051050#0 205833528#3 205833528#1 205833528#0 4644887 24375800#1 24375800#0 26403933#2 -4476790#1 45885961 45885962 13444210#0 13444210#1 13444211#0 13444211#1 -381202305#2 -381202305#1 -381202305#0 -381202306#0 -381202306#1 381215016 4483893#0 892553107 987846921 894981821#2 892553114#2 894981816#4 894981816#3 894981818 892553118 892553116#0 892553116#1 987846923 892553115 45051085 4397805 4521153#0 4521153#1 4521153#2 20448005#0 -20448005#1 101519095#0 -101519062"/>
    </person>
    <person id="10" depart="50.00">
        <walk edges="4844457#1 -4844457#0 4844455#2 4844455#0 4494926#7 -4494926#5 4494926#4 -4494926#3 1061889146#1 1061889144#1 1061889144#0 172206444#1 172206444#2 4844450#0 -4677446#1 172206441 -58648676#7 58648676#6 58648676#5 58648676#4 -58648676#3 58648676#2 -58648676#1 58648676#0 4677320#1 4677320#0 58169416 4787475#0 145781025 4787473#0 198044378#2 4991165#0 4991165#1 4991165#2 20450086 43183919#0 43183919#1 103741996 103741992#1 103741992#0 -196934179#0 4628076 28380058#2 28380058#1 -28380058#0 45051125#0 133372579#0 707455187#0 707455187#1 45051124#1"/>
    </person>
    <person id="11" depart="55.00">
        <walk edges="1120168311 77647202#1 -131860123#0 131860123#1 -203955671#0 -90682376 -205819136 -201700815 -1003917173 4642302#0 4642302#1 4642302#2 4642302#3 201700816 26403933#2 -4476790#1 45885961 45885962 13444210#0 13444210#1 13444212#1 13444212#2 143769306#4 143769306#2 143769306#1 143769304#1 -143769304#0 4483920#1 4483920#0 -209263690#3 -209263690#2 -209263690#1 -209263690#0 1136445706#1 4903954 707455174 133372587#0 133372587#1 133372587#2 707455194#4 750592071#1 750592073#3 707455188#1 133372576#3 133372586#0 133372586#1 707455173 707455172 -45839056#3 -45839056#1 -384212608#2 26303673 26303672 45360164#6 45360164#7 -26303669 -210429351#1 4839472#1 23605439 143927419 -45073628#5 -45073628#4 45073628#3 45073628#2 -45073628#1 -45073628#0"/>
    </person>
    <person id="12" depart="60.00">
        <walk edges="8752620#4 -8752620#3 4644897#2 417316667#3 417316667#2 417316667#1 417316667#0 417313760#1 417313760#0 -4627829#1 -4627829#0 114324471 745391452 45074531 4778497 4542288 4787501#1 4787501#0 4628076 -196934179#0 196934179#1 -196934179#2 196934179#3 -196934179#6 -196934179#7 196934179#8 997592566 997592565#2 997592565#1 997592565#0 23863004#4 -196934179#11 196934179#12 164500952#1 164500952#0 833743727#1 833743727#0 -59738304#1 1103822694"/>
    </person>
    <person id="13" depart="65.00">
        <walk edges="-219671015 23706686#0 185756882 -400605135#0 400605135#1 415336320 229151686 8746404 205833528#3 205833528#1 205833528#0 4644887 24375800#1 24375800#0 26403933#2 -4476790#1 45885961 45885962 13444210#0 13444210#1 13444211#0 13444211#1 -381202305#2 -381202305#1 -381202305#0 -381202306#0 -381202306#1 381215016 4483893#0 892553107 987846921 894981821#2 892553114#2 892553114#3 892574652#3 892574652#4 225910569 -37607624#1 -37607624#0 45074530 185136472 185136473 4628076 -196934179#0 196934179#1 188971388#0 744750264#0 744750264#1 744750260#2 744750260#1 1106121183#4 1106121183#3 307803060#1 1106121183#1 744750269 744750270 744750271 744750272 23605442#1 -45073629#5 -45359877#0 -45359877#1 45359877#2 -23605430#0 -23605430#1 23605430#2 -23605430#2"/>
    </person>
    <person id="14" depart="70.00">
        <walk edges="547497991 547497992 -4991182#7 4991182#6 532504152#0 532504151 547497995#1 547497995#0 547497994 547497996#2 532581792 4991184#1 -96646976#1 77663269#3 77663269#2 -102637317 102637320 102666687 102666704 77664372 102666708 102666698#0 102666680 326138090 102666681#1 102666689 102637691 182915558#0 101519108 101519052 101519098 101519091#4 101519091#3 101519091#2 101519091#1 101519091#0 -20448005#6 20448005#7 196934179#3 196934179#2 196934179#1 -196934179#0 4628076 28380058#2 28380058#1 -28380058#0 45051125#0 133372579#0 707455187#0 707455187#1 707455187#2 133372575#0 133372575#1 133372585#0 707455194#7 750592073#1 750592070#1 707455194#5 133372587#2 133372587#1 26303664#1 707455175#0 707455178 707455179 707455180 198642284#2 198642284#3 1136445734 1136445724 1136445731#1 1136445710#0 1136445726 1136445721 1136445727#0 1136445712#1 1136445712#0 164500951 1047548239#1 679761827 116508841#0 202830393 4904187#1 4904187#2 4904149#3 -968763898#0 -968763898#1 -132131494 4745135 444472192 -444472193 -4745136#2 -4745136#3 -4745136#5 -4745136#6 4745045#1 4745045#0 325815778#0 325815778#1 325815778#2 325815778#3 325815778#4 325815771"/>
    </person>
    <person id="15" depart="75.00">
        <walk edges="4844459#1 -4844459#0 4494926#10 4494926#7 -4494926#5 4494926#4 -4494926#3 1061889146#1 1061889144#1 1061889144#0 172206444#1 172206444#2 4844450#0 -4677446#1 172206441 -58648676#7 58648676#6 58648676#5 58648676#4 -58648676#3 58648676#2 -58648676#1 58648676#0 4677320#1 4677320#0 58169416 4787475#0 145781025 4787473#0 198044378#2 4991165#0 4991165#1 4991165#2 20450086 43183919#0 43183919#1 103741996 103741992#1 103741992#0 -196934179#0 4628076 28380058#2 28380058#1 -28380058#0 45051125#0 45051125#1 45051125#2 4570715"/>
    </person>
    <person id="16" depart="80.00">
        <walk edges="221119204#0 45051066 143769305 45886022 4764294#2 143769306#4 -736261759 736261760 -736261761 736261762 736261758 4483892#1 4483892#2 381215016 4483893#0 892553107 987846921 894981821#2 892553114#2 894981816#4 894981816#3 894981818 892553118 892553116#0 892553116#1 894981813"/>
    </person>
    <person id="17" depart="85.00">
        <walk edges="1175931566#0 1175931566#1 1175931585#5 1175931568#0 -4548200#0 982371441#2 45267135#1 982371441#0 4548200#4 45073977#0 45073977#1 726172047 4677319#3 4677319#1 4677319#0 1089452022#4 -1089452022#5 -4745074 990894174 20448023 20448005#0 -20448005#1 -20448005#2 -20448005#3 20448005#4 -20448005#6 20448005#7 744750261#0 744750261#1 744750261#2 744750260#1 1106121183#4 1106121183#3 307803060#1 307803060#0 -23605441 23605440#0"/>
    </person>
    <person id="18" depart="90.00">
        <walk edges="4991163 4787454#1 116391676#4 116391676#3 116391676#2 -116391676#1 -116391676#0 4991162 4494911#3 45405496 115418075 291947057#1 115418103 45073976#1 -380962601 380962599#0 99796055 -4717602#1 4717602#0 26410600#0 4717604 -380618974#3 380618974#3"/>
    </person>
    <person id="19" depart="95.00">
        <walk edges="588506827 995103496 749901774 749901775 749901776 749901777 749901778 749901779 116370225 116370214#3 116370214#2 116739658#0 116739658#1 116739658#2 -77647207 39891023#0 -201700815 -1003917173 4642302#0 4642302#1 4642302#2 4642302#3 201700816 26403933#2 -4476790#1 45885961 45885962 13444210#0 13444210#1 13444212#1 13444212#2 143769306#4 143769306#2 143769306#1 143769304#1 -143769304#0 4483920#1 4483920#0 -209263690#3 -209263690#2 -209263690#1 -209263690#0 1136445706#1 4903954 707455174 133372587#0 133372587#1 133372587#2 707455194#4 750592071#1 750592073#3 707455188#1 133372576#3 133372586#0 133372586#1 707455173 707455172 -45839056#3 -45839056#1 -384212608#2 26303673 26303672 45360164#6 45360164#7 -26303669 -210429351#1 20279746#0 -20279746#1 20279746#2 -20279772#0 26303897 -26303896#2 -26303896#1 26303895#1"/>
    </person>
    <person id="20" depart="100.00">
        <walk edges="4521152#0 286810238#0 286810238#1 375846750#0 547787397#1 4981556#4 -4638062#0 -4638062#1 22287197 58169647#0 58169647#1 4494913#4 -4844446#0 4844446#1 4844448 -4844447#0 -58648676#7 -172206441 -4677446#1 -4844450#0 172206444#2 172206444#1 1061889144#0 1061889144#1 1061889146#1 -4494926#3 -4494926#4 -4494926#5 4494926#7 -4844455#0 -4844455#2 -4844457#0 -4844457#1 -137745896#1 -137745894#0"/>
    </person>
    <person id="21" depart="105.00">
        <walk edges="-677579400 677579400 677579393#0 20279755#2 -4839473#3 -23863005#0 121929400 121929406#1 23605427#2 23605428 20279762#1 121929412#2 121929412#1 121929412#0 121929411#2 -45359877#0 45073629#5 23605442#1 744750272 744750271 744750270 744750269 744750267 77663265#0 1106121183#3 1106121183#4 744750260#1 744750260#2 744750264#1 744750264#0 188971388#0 196934179#1 -196934179#0 4628076 185136473 185136472 45074530 37607624#0 -37607624#1 225910569 892574652#4 892574652#3 892553114#3 892553114#2 894981821#2 987846921 892553107 4483893#0 381215016 -381202306#1 -381202306#0 -381202305#0 -381202305#1 -381202305#2 13444211#1 13444211#0 13444210#1 13444210#0 45885962 45885961 -4476790#1 26403933#2 201700816 4642302#3 4642302#2 4642302#1 4642302#0 -1003917173 -201700815 39891023#0 -77647207 116739658#2 116739658#1 116739645 116370262#1 389802135#2 42205107#1 42205107#0 777742066#0 777742066#1 454051240#0 41863458 -35066921 -35066922#0 35066923 534200273#0 534200273#1 10111730#2 -10111730#0 133917371 133632797#2 -53804609#0 10111716#8 -10111716#7 10111716#6 10111716#5 10111716#4 10111716#3 10111716#2 -10111716#1 10111716#0 10111713#9 876572395#0 -876572395#1 10111712#0"/>
    </person>
    <person id="22" depart="110.00">
        <walk edges="-20279759#2 20279759#1 -20279759#0 45073628#6 -45073628#5 -45073628#4 45073628#3 45073628#2 -45073628#1 -45073628#0 -20279756#0 -20279756#1 20279756#2 20279756#3 1157030914 26303873 1155343543 1155343546 1155343542#1 1155343542#0 1155343547 1155343541#1 1155343541#0 1155343539 1155343540 26303874#3 -26303875 -26303876 45073568#0 1156852559#0 45073568#2 45073568#3 -723812724#0 723812725#0 723812725#1 723812725#2 723812725#3 -723812725#4"/>
    </person>
    <person id="23" depart="115.00">
        <walk edges="-23862996#2 23862996#3 -23862996#4 167639665#1 167639675#4 167639675#3 167639675#2 167639675#1 888028120#0 77664306#1 -77664306#0 45359877#4 -45359877#3 45359877#2 -45359877#1 -45359877#0 45073629#5 23605442#1 744750272 744750271 744750270 744750269 744750267 77663265#0 1106121183#3 1106121183#4 744750260#1 744750260#2 744750264#1 744750264#0 188971388#0 196934179#1 -196934179#0 4628076 185136473 185136472 45074530 37607624#0 -37607624#1 225910569 892574652#4 892574652#3 892553114#3 892553114#2 894981821#2 987846921 892553107 4483893#0 381215016 -381202306#1 -381202306#0 -381202305#0 -381202305#1 -381202305#2 13444211#1 13444211#0 13444210#1 13444210#0 45885962 45885961 -4476790#1 26403933#2 201700816 4642302#3 4642302#2 4642302#1 4642302#0 -1003917173 -201700815 205819136 90682376 -203955671#0 131860123#1 131860123#0 8751900#3 -41863460#0 41863459#1 41863459#2 491303420 595322009 4876190#3 9702643#0 9702643#1 -93256779#2"/>
    </person>
    <person id="24" depart="120.00">
        <walk edges="384218092#1 55668655#0 55668655#1 -706496749#2 706496749#1 -706496749#0 706496748#2 115894396#1 115894396#2"/>
    </person>
    <person id="25" depart="125.00">
        <walk edges="116370226 4862551#2 4717600#0 4717600#1 4717600#2 116370208 4717602#0 -4717602#1 4717602#2 4717602#3 958054763 -206317572 99798486 -4494912#0 -4494912#1 4494912#2 -4494912#3 4494912#4 -4494912#5 37943342#0 37943342#1 4741291#1 -4494913#0 4494913#1 -4494913#2 -4494913#3 4494913#4 -4494913#5 4494913#6 -4494913#7 4494913#8 -4494913#9 -4494913#10 4494913#11 -4494913#12 -685023881#0 -685023881#1 685023881#3 4991184#1 532581792 547497996#2 547497994 547497995#0 547497995#1 532504151 532504152#0 4991182#6 -4991182#6"/>
    </person>
    <person id="26" depart="130.00">
        <walk edges="-8751310#0 69067217#2 744562461#1 744562462 69067217#5 69067217#6 48610084#2 48610084#1 48610084#0 -121017977 121017976 8746407#1 8746407#0 -8746405#0 45051050#0 8746401#0 389792574 8746402 131860123#1 8751893#1 8751893#0 950205189#1 950205189#0 454051240#1 454051240#0 41863458 -35066921 -35066922#0 35066923 534200273#0 534200273#1 -93269804#1 93269804#0 8073108#2 -8073108#1 8073108#1"/>
    </person>
    <person id="28" depart="140.00">
        <walk edges="-4548297#6 4494926#12 4494926#10 4494926#7 -4494926#5 4494926#4 -4494926#3 1061889146#1 1061889144#1 1061889144#0 172206444#1 172206444#2 4844450#0 -4677446#1 172206441 -58648676#7 58648676#6 58648676#5 58648676#4 -58648676#3 58648676#2 -58648676#1 58648676#0 4677320#1 4677320#0 58169416 4787475#0 145781025 4787473#0 198044378#2 -198044378#1 198969727#1 198642280#1 -198642280#0 4627827 47168897#0 47168897#1 204790849 45051130 892553115 987846923 892553116#1 892553116#0 892553118 894981818 894981816#3 894981816#4 892553114#2 894981821#2 987846921 892553108#0 892553110 892553112 4787502#1 4787502#2 4787504 177621729#0 177621731 177621727#1 177621732 388878072 381202308#3 381202308#4 381202309#0 381202309#1 381202309#2 381202309#3 381202309#4 381212407#0 381212407#1 -209263690#1 -209263690#0 1136445706#1 -1136445706#0 1136445715 43847349#2 1136445734 1136445724 1136445731#1 1136445710#0 1136445726 1136445721 1136445727#0 1136445712#1 1136445712#0 164500951 1047548239#1 679761827 116508841#0 202830393 4904187#0 -4904147 -45359120#0 -45359120#1 -45359120#2 -45359120#3 -45359120#4 4904150#2 4904150#1 85145099#3 489409930 -489409929#0 489409929#1 4904184#6 4904184#7 -45360504#2 45360506#0 25774329#1 45570241"/>
    </person>
    <person id="29" depart="145.00">
        <walk edges="-45359120#4 45359120#4 -45359120#3 45359120#2 45359120#1 -45359120#0 4904147 4904187#0 202830393 116508841#0 679761827 1047548239#1 164500951 1136445712#0 1136445712#1 1136445727#0 1136445721 1136445726 1136445710#0 1136445731#1 1136445724 1136445734 43847349#2 1136445715 -1136445706#0 -1136445706#1 -209263690#0 -209263690#1 381212407#1 381212407#0 381202309#4 381202309#3 381202309#2 381202309#1 381202309#0 381202308#4 381202308#3 388878072 177621732 177621727#1 177621727#0 177621728 177621730 388878073 381202308#0 25260617 -381202306#1 -381202306#0 -381202305#0 -381202305#1 -381202305#2 -381202305#3 -381202305#4 -381202305#5 -381202305#6 -381202305#7 -381202305#8 -381202305#9 -381202305#10 28776351#1 28776351#2 28776351#3 28776351#4 28776351#5 4494911#0 4494911#1 4494911#2 45405496 115418075 291947057#1 115418103 45073976#1 -45073976#0 655636411 4548210#2 4548210#1 4548210#0 4548200#4 982371441#0 45267135#1 982371441#2 -4548200#0 1175931568#1"/>
    </person>
    <person id="31" depart="155.00">
        <walk edges="23802666#5 -23802666#4 23802666#3 -23802666#2 23802666#1 23802666#0 8751900#2 8751900#3 -131860123#0 131860123#1 -203955671#0 -90682376 -205819136 -201700815 -1003917173 4953265 4953267#1 4953267#0 26403932 4474113#0 4474113#1 28776351#1 28776351#2 28776351#3 28776351#4 28776351#5 4494909#0 4494909#1"/>
    </person>
    <person id="32" depart="160.00">
        <walk edges="532504152#0 532504151 547497995#1 547497995#0 547497994 547497996#2 532581792 4991184#1 96646976#1 77663269#3 77663269#2 -102637317 102637320 102666687 102666704 77664372 102666708 102666698#0 102666680 326138090 102666681#1 102666689 102637691 182915558#0 101519108 101519052 101519098 101519091#4 101519091#3 101519091#2 101519091#1 101519091#0 -20448005#6 20448005#7 196934179#3 196934179#2 196934179#1 -196934179#0 4628076 28380058#2 28380058#1 -28380058#0 45051125#0 133372579#0 707455187#0 707455187#1 707455187#2 133372575#0 133372575#1 133372585#0 707455194#7 750592073#1 750592070#1 707455194#5 133372587#2 133372587#1 26303664#1 707455175#0 707455178 707455179 707455180 198642284#2 198642284#3 1136445734 1136445724 1136445731#1 1136445710#0 1136445726 1136445721 1136445727#0 1136445712#1 1136445712#0 164500951 1047548239#1 679761827 116508841#0 202830393 4904187#1 4904187#2 4904149#3 -968763898#0 -968763898#1 -132131494 4745135 444472192 -444472193 -4745136#2 -4745136#3 -4745136#5 -4745136#6 4745045#1 4745045#0"/>
    </person>
    <person id="33" depart="165.00">
        <walk edges="-69067227 389802951#2 389802951#1 -389802951#0 203957021#3 203957021#2 203957021#1 -389802137 389802136 112804960#0 389802135#2 116370262#1 116739645 116739658#1 116739658#2 -77647207 39891023#0 202744706#2 119504356 -119504356"/>
    </person>
    <person id="34" depart="170.00">
        <walk edges="102666704 77664372 102666708 102666698#0 102666680 326138090 102666681#1 102666689 102637691 182915558#0 101519108 101519052 101519098 101519091#4 101519091#3 101519091#2 101519091#1 101519091#0 -20448005#6 20448005#7 196934179#3 196934179#2 196934179#1 -196934179#0 4628076 4787501#0 4787501#1 4542288 4778497 -45074531 745391452 114324471 -4627829#0 -4627829#1 417313760#0 417313760#1 417316667#0 417316667#1 417316667#2 417316667#3 417316667#4 417316667#5 4644890#2 8752620#5 8752620#6 8752620#7 134939932#1 134939932#0 134939934 134939928 -8751310#6"/>
    </person>
    <person id="35" depart="175.00">
        <walk edges="-5137046#0 28892131 28891937#0 -380809596 -389795841 -42205105 4642304#0 4642304#1 4642304#2 4642304#3 721037390 -1003917173 -201700815 205819136 90682376 -203955671#0 131860123#1 -8746402 389792574 8746401#0 45051050#0 -8746405#0 -8746407#0 8746407#1 121017976 -121017977 48610084#0 -48610084#1 48610084#2 69067217#6 69067217#5 744562462 744562461#1 69067217#2 69067217#1 69067217#0 736368179 736368178 69067210 4764308 69067221#2 69067221#1 69067221#0 4764321 4745226#1 4745226#0 4764319 -4764318#0 271101785 82759381"/>
    </person>
    <person id="36" depart="180.00">
        <walk edges="706496748#0 1103822695 -156536760#2 156536760#1 425184482#0 143784301#4 143784301#3 -143784301#2 102637322#0 102637322#1 102637322#2 102666687 102666704 77664372 102666708 102666698#0 102666698#1 102666703 102666686#0 102666686#1 102666699"/>
    </person>
    <person id="37" depart="185.00">
        <walk edges="389402416#3 4589099#2 4589099#3 4589099#4 164087247#0 4521175#0 9395410#1 144176629 527034495 4567177 4474113#0 4474113#1 -381202305#10 -381202305#9 -381202305#8 -381202305#7 -381202305#6 -381202305#5 -381202305#4 -381202305#3 -381202305#2 -381202305#1 -381202305#0 -381202306#0 -381202306#1 381215016 4483893#0 892553107 987846921 894981821#2 892553114#2 892553114#3 892574652#3 892574652#4 225910569 -37607624#1 -37607624#0 45074530 185136472 185136473 4628076 -196934179#0 196934179#1 188971388#0 744750264#0 744750264#1 744750260#2 744750260#1 1106121183#4 1106121183#3 307803060#1 1106121183#1 744750269 744750270 744750271 744750272 23605442#1 -45073629#5 -45359877#0 121929411#2"/>
    </person>
    <person id="38" depart="190.00">
        <walk edges="744750279 -188971388#3 -744750276 -744750273#0 307803060#1 1106121183#1 744750269 744750270 744750271 744750272 23605442#1 23605432 23605433#0 23605423#0 23605423#1 167639659 167639671#1"/>
    </person>
    <person id="39" depart="195.00">
        <walk edges="-840062940#0 840062940#0 10111712#5 133868745#1 -10111713#1 10111713#2 10111713#3 10111713#4 10111713#5 10111713#8 10111713#9 10111716#0 -10111716#1 -10111716#2 -10111716#3 -10111716#4 10111716#5 -10111716#6 -10111716#7 10111716#8 -53804609#0 133632797#2 133917371 -10111730#0 -10111730#2 534200273#1 534200273#0 35066923 35066922#0 -35066921 41863458 454051240#0 777742066#1 777742066#0 42205107#0 42205107#1 389802135#2 116370262#1 116739645 116739658#1 116739658#2 -77647207 39891023#0 -201700815 -1003917173 4642302#0 4642302#1 4642302#2 4642302#3 201700816 26403933#2 -4476790#1 45885961 45885962 13444210#0 13444210#1 13444211#0 13444211#1 -381202305#2 4497324 736254764 736254765 381207142#2 736305470 736305471 23706736 23706735 4953268#1 4953268#0 204790848 143769308#1 143769308#0 4683301#4 -736611808 -736611809"/>
    </person>
    <person id="40" depart="200.00">
        <walk edges="23863004#1 23863004#2 997592563#0 997592561#1 997592562#0 997592562#1 997592559 997592565#2 997592566 196934179#8 -196934179#7 196980698 196980683 196980700 182915557 102666701#0 102666692 182915558#1 182915558#0 4745073#2 4745073#3 4745073#4 286810238#0 286810238#1 375846750#0 547787397#1 4981556#4 -4638062#0 -4638062#1 4638062#2 4638062#3 -4638062#4 5730546#0 5730546#1 4548209#2 4677321 -83607382#6 83607382#5 -83607382#3 83607382#2 -83607382#1"/>
    </person>
    <person id="41" depart="205.00">
        <walk edges="28380058#1 -28380058#0 -45051111#0 45051111#1 -210429351#0 -210429351#1 20279746#0 -20279746#1 20279746#2 -20279746#3 -26303872 732295445#0"/>
    </person>
    <person id="42" depart="210.00">
        <walk edges="123759260 45360164#0 219273311#4 707455190#0 707455191 707455189 707455192 133372573#1 703982868 188971378#0 188971378#1 133372574 133372579#1 133372579#0 45051125#0 -28380058#0 28380058#1 28380058#2 185136473 185136472 45074530 -4497320 4397805 45051129 -4683299 -198969727#1 4787455#0 4787455#1 -417415066 -99798486 655636411 4548210#2 4548210#1 4548210#0 4548200#4 4548200#3 55702655 -55702654#0 -55702653#8 -55702653#7"/>
    </person>
    <person id="43" depart="215.00">
        <walk edges="997592562#2 997592562#1 997592562#0 997592561#1 997592563#0 23863004#2 23863004#1 23863004#0 -96646975#0 96646975#1 -96646975#2 -23605431#0 23605431#1 23605433#2 20279762#4 20279762#5 20279762#6 20279762#7"/>
    </person>
    <person id="44" depart="220.00">
        <walk edges="-216664506#1 216664506#1 1175931572#0 8073925#1 8073925#0 83607382#2 -83607382#3 83607382#5 -83607382#6 -83607382#8 4741291#0 4741291#1 -4494913#0 4494913#1 -4494913#2 -4494913#3 4494913#4 -4494913#5 4494913#6 -4494913#7 4494913#8 -4494913#9 -4494913#10 4494913#11 -4494913#12 -685023881#0 -685023881#1 437898938 147564999 437898935 -77664375#0 77664375#1 -77664375#2 101513478#0 -101513478#1 -101513478#2 387109456#0 387109459 156536760#1 -156536760#2 1103822695 4839479#0 4839479#1 1103822694 463312837#1 23862995#0 188948807#0 -139585856"/>
    </person>
    <person id="45" depart="225.00">
        <walk edges="-26303895#1 -26303896#1 26303896#2 26303897 -20279772#0 20279746#2 20279746#1 20279746#0 210429351#1 26303669 45360164#7 45360164#6 26303672 26303673 -384212608#2 -45839056#1 45839056#3 707455172 707455173 133372586#1 133372586#0 133372576#3 707455188#1 750592073#3 750592071#1 707455194#4 133372587#2 133372587#1 133372587#0 707455174 -4903954 -1136445706#1 45886020#1 -45886020#0 45886021 4717559#2 1025277271 1025277270 381212407#5"/>
    </person>
    <person id="46" depart="230.00">
        <walk edges="4787473#0 198044378#2 -198044378#1 198969727#1 198642280#1 -198642280#0 4627827 47168897#0 381207142#0 381207142#1 381207142#2 736254765 736254764 4497324 -381202305#2 13444211#1 13444211#0 13444210#1 13444210#0 45885962 45885961 -4476790#1 26403933#2 201700816 4642302#3 4642302#2 4642302#1 4642302#0 -1003917173 -201700815 39891023#0 -77647207 116739658#2 116739658#1 116739645 116370262#1 389802135#2 42205107#1 42205107#0 777742066#0 777742066#1 454051240#0 41863458 -35066921 -35066922#0 35066923 534200273#0 534200273#1 10111730#2 -10111730#0 133917371 133632797#2 -53804609#0 10111716#8 -10111716#7 10111716#6 133917375"/>
    </person>
    <person id="47" depart="235.00">
        <walk edges="-185807604#0 -185807600#0 -20466083#0 -20466083#1 -4494913#5 4494913#4 4494913#3 -4494913#2 4494913#1 -4494913#0 4741291#1 4741291#0 -83607382#8 -83607382#6 83607382#5 -83607382#3 83607382#2 -83607382#1 1175931573#0 1175931572#2 1175931574#1 1175931574#0"/>
    </person>
    <person id="48" depart="240.00">
        <walk edges="995103496 380808600#1 735349186 735349188 151952407 4548443#1 380618972 730447301#1 730447301#0 -380618974#6 -380618974#5 380618974#4 -380618974#3 380618974#2 -380618974#1 380618974#0 380618971#0 380618971#1 386617897 4760219 386617898#0 386617898#1 262604451 1175931568#1 1175931570#0 1175931569#0 1089451382#0 1089451382#1 1089451382#2 8073925#0 8073925#1 8073925#2 8073926#2 -28891839#0 -28891839#1 28891839#3 28891840 28891834#3 28891834#2 -28891834#1 28891695#2 102147604#0 216664510"/>
    </person>
    <person id="49" depart="245.00">