<?xml version="1.0" encoding="UTF-8"?>

<!-- generated on 2023-06-20 18:15:15.909089 by randomTrips.py UNKNOWN
<configuration>
    <net-file value="glasgow.net.xml"/>
    <output-trip-file value="ped_trips.xml"/>
    <route-file value="ped_routes.rou.xml"/>
    <pedestrians value="True"/>
    <end value="600"/>
    <period value="5.0"/>
</configuration>
-->

<routes xmlns:xsi="http://www.w3.org/2001/XMLSchema-instance" xsi:noNamespaceSchemaLocation="http://sumo.dlr.de/xsd/routes_file.xsd">
    <person id="0" depart="0.00">
        <walk from="387109456#1" to="-116370230#1"/>
    </person>
    <person id="1" depart="5.00">
        <walk from="-890778748#1" to="-595322020#0"/>
    </person>
    <person id="2" depart="10.00">
        <walk from="45886021" to="43183919#1"/>
    </person>
    <person id="3" depart="15.00">
        <walk from="727833913#6" to="-20448005#7"/>
    </person>
    <person id="4" depart="20.00">
        <walk from="133917373#0" to="-1175931588"/>
    </person>
    <person id="5" depart="25.00">
        <walk from="-55702653#0" to="20279751#1"/>
    </person>
    <person id="6" depart="30.00">
        <walk from="-116370283" to="-4865968#1"/>
    </person>
    <person id="7" depart="35.00">
        <walk from="389130862#1" to="22731341#0"/>
    </person>
    <person id="8" depart="40.00">
        <walk from="-579403733" to="28776351#4"/>
    </person>
    <person id="9" depart="45.00">
        <walk from="485899793#0" to="-101519062"/>
    </person>
    <person id="10" depart="50.00">
        <walk from="4844454#1" to="45051068#2"/>
    </person>
    <person id="11" depart="55.00">
        <walk from="1127483390" to="-45051111#1"/>
    </person>
    <person id="12" depart="60.00">
        <walk from="8752620#2" to="1105467584"/>
    </person>
    <person id="13" depart="65.00">
        <walk from="-216664508#1" to="-229159105#1"/>
    </person>
    <person id="14" depart="70.00">
        <walk from="544577570" to="307803060#0"/>
    </person>
    <person id="15" depart="75.00">
        <walk from="4844457#1" to="45568795#2"/>
    </person>
    <person id="16" depart="80.00">
        <walk from="221119202#1" to="894981815"/>
    </person>
    <person id="17" depart="85.00">
        <walk from="1175931567#1" to="23605437#3"/>
    </person>
    <person id="18" depart="90.00">
        <walk from="4981584#1" to="37943342#1"/>
    </person>
    <person id="19" depart="95.00">
        <walk from="58648676#6" to="26303874#3"/>
    </person>
    <person id="20" depart="100.00">
        <walk from="45073977#1" to="-134943177"/>
    </person>
    <person id="21" depart="105.00">
        <walk from="-677579396#1" to="10111712#1"/>
    </person>
    <person id="22" depart="110.00">
        <walk from="-20279755#1" to="-723812725#3"/>
    </person>
    <person id="23" depart="115.00">
        <walk from="-23802666#0" to="-93256779#2"/>
    </person>
    <person id="24" depart="120.00">
        <walk from="384189457" to="115894400#1"/>
    </person>
    <person id="25" depart="125.00">
        <walk from="116370230#0" to="-4991182#3"/>
    </person>
    <person id="26" depart="130.00">
        <walk from="-8751310#0" to="805924785"/>
    </person>
    <person id="27" depart="135.00">
        <walk from="388878635" to="345054311"/>
    </person>
    <person id="28" depart="140.00">
        <walk from="-4548297#1" to="45568794"/>
    </person>
    <person id="29" depart="145.00">
        <walk from="-45359120#0" to="1175931570#0"/>
    </person>
    <person id="30" depart="150.00">
        <walk from="977024102#1" to="387163224#1"/>
    </person>
    <person id="31" depart="155.00">
        <walk from="23802666#0" to="4483893#3"/>
    </person>
    <person id="32" depart="160.00">
        <walk from="527034495" to="4745019#6"/>
    </person>
    <person id="33" depart="165.00">
        <walk from="-685023881#1" to="-118642187#0"/>
    </person>
    <person id="34" depart="170.00">
        <walk from="102666707" to="-8751310#5"/>
    </person>
    <person id="35" depart="175.00">
        <walk from="-4991184#0" to="822303775"/>
    </person>
    <person id="36" depart="180.00">
        <walk from="691210530" to="102666701#0"/>
    </person>
    <person id="37" depart="185.00">
        <walk from="389402414#3" to="121929412#1"/>
    </person>
    <person id="38" depart="190.00">
        <walk from="744750272" to="167639665#0"/>
    </person>
    <person id="39" depart="195.00">
        <walk from="-839276051" to="-736611808"/>
    </person>
    <person id="40" depart="200.00">
        <walk from="23863002#0" to="-83607382#0"/>
    </person>
    <person id="41" depart="205.00">
        <walk from="28072796#3" to="731204877#1"/>
    </person>
    <person id="42" depart="210.00">
        <walk from="123759262" to="-55702653#4"/>
    </person>
    <person id="43" depart="215.00">
        <walk from="997592562#2" to="20279762#11"/>
    </person>
    <person id="44" depart="220.00">
        <walk from="-209263690#0" to="-137734709"/>
    </person>
    <person id="45" depart="225.00">
        <walk from="-26303874#0" to="381207142#1"/>
    </person>
    <person id="46" depart="230.00">
        <walk from="4778498#0" to="133917373#2"/>
    </person>
    <person id="47" depart="235.00">
        <walk from="-185805435#0" to="1175931575#1"/>
    </person>
    <person id="48" depart="240.00">
        <walk from="995103496" to="216664507"/>
    </person>
    <person id="49" depart="245.00">
        <walk from="892574652#0" to="58648676#1"/>
    </person>
    <person id="50" depart="250.00">
        <walk from="-106789814" to="45360553"/>
    </person>
    <person id="51" depart="255.00">
        <walk from="4474113#1" to="221119204#0"/>
    </person>
    <person id="52" depart="260.00">
        <walk from="-8751308" to="387378725"/>
    </person>
    <person id="53" depart="265.00">
        <walk from="-26410442#0" to="143769304#0"/>
    </person>
    <person id="54" depart="270.00">
        <walk from="166140971#2" to="8751890#1"/>
    </person>
    <person id="55" depart="275.00">
        <walk from="69067227" to="-83607382#5"/>
    </person>
    <person id="56" depart="280.00">
        <walk from="199660415" to="-4717602#3"/>
    </person>
    <person id="57" depart="285.00">
        <walk from="744750264#0" to="674823014#0"/>
    </person>
    <person id="58" depart="290.00">
        <walk from="101519055#2" to="387109451"/>
    </person>
    <person id="59" depart="295.00">
        <walk from="342263342" to="-4494926#13"/>
    </person>
    <person id="60" depart="300.00">
        <walk from="472995010#0" to="225910568#0"/>
    </person>
    <person id="61" depart="305.00">
        <walk from="4745072#0" to="216664511#1"/>
    </person>
    <person id="62" depart="310.00">
        <walk from="-10111713#1" to="1049594967"/>
    </person>
    <person id="63" depart="315.00">
        <walk from="-114721092#4" to="77663269#3"/>
    </person>
    <person id="64" depart="320.00">
        <walk from="707455174" to="4991175#1"/>
    </person>
    <person id="65" depart="325.00">
        <walk from="102637316" to="-166140974#3"/>
    </person>
    <person id="66" depart="330.00">
        <walk from="706496749#2" to="839276051"/>
    </person>
    <person id="67" depart="335.00">
        <walk from="-203957021#3" to="192671949#3"/>
    </person>
    <person id="68" depart="340.00">
        <walk from="-188948807#0" to="4717618#1"/>
    </person>
    <person id="69" depart="345.00">
        <walk from="473665064#1" to="-35066922#1"/>
    </person>
    <person id="70" depart="350.00">
        <walk from="185807600#2" to="23605431#0"/>
    </person>
    <person id="71" depart="355.00">
        <walk from="-840062940#0" to="679761827"/>
    </person>
    <person id="72" depart="360.00">
        <walk from="13444210#0" to="-5137046#2"/>
    </person>
    <person id="73" depart="365.00">
        <walk from="225910568#0" to="45568926"/>
    </person>
    <person id="74" depart="370.00">
        <walk from="-4903952#0" to="102666681#1"/>
    </person>
    <person id="75" depart="375.00">
        <walk from="987846921" to="389130862#1"/>
    </person>
    <person id="76" depart="380.00">
        <walk from="144176630#0" to="20448005#2"/>
    </person>
    <person id="77" depart="385.00">
        <walk from="-30023799#0" to="-642758400"/>
    </person>
    <person id="78" depart="390.00">
        <walk from="1106121183#8" to="28776349"/>
    </person>
    <person id="79" depart="395.00">
        <walk from="-708031287" to="-55702654#0"/>
    </person>
    <person id="80" depart="400.00">
        <walk from="-19228583" to="382336267"/>
    </person>
    <person id="81" depart="405.00">
        <walk from="-685023881#1" to="736305471"/>
    </person>
    <person id="82" depart="410.00">
        <walk from="58169414" to="-19228583"/>
    </person>
    <person id="83" depart="415.00">
        <walk from="-727833913#4" to="417627763"/>
    </person>
    <person id="84" depart="420.00">
        <walk from="-5171332#1" to="-380618974#4"/>
    </person>
    <person id="85" depart="425.00">
        <walk from="78412777#1" to="257885007"/>
    </person>
    <person id="86" depart="430.00">
        <walk from="177820580" to="4750189#2"/>
    </person>
    <person id="87" depart="435.00">
        <walk from="4844458#1" to="-4839478#0"/>
    </person>
    <person id="88" depart="440.00">
        <walk from="-233537356" to="137745894#1"/>
    </person>
    <person id="89" depart="445.00">
        <walk from="13444211#1" to="176765194"/>
    </person>
    <person id="90" depart="450.00">
        <walk from="45568794" to="42796910#1"/>
    </person>
    <person id="91" depart="455.00">
        <walk from="96646975#2" to="-23605432"/>
    </person>
    <person id="92" depart="460.00">
        <walk from="128508406#2" to="1119398513"/>
    </person>
    <person id="93" depart="465.00">
        <walk from="58648676#6" to="-746730891"/>
    </person>
    <person id="94" depart="470.00">
        <walk from="-4839473#3" to="157449868#2"/>
    </person>
    <person id="95" depart="475.00">
        <walk from="133917373#0" to="-93269804#4"/>
    </person>
    <person id="96" depart="480.00">
        <walk from="-753393452#0" to="767655532"/>
    </person>
    <person id="97" depart="485.00">
        <walk from="148001231#1" to="58648676#4"/>
    </person>
    <person id="98" depart="490.00">
        <walk from="23605433#0" to="-143769304#0"/>
    </person>
    <person id="99" depart="495.00">
        <walk from="997592565#3" to="5137042"/>
    </person>
    <person id="100" depart="500.00">
        <walk from="892553120" to="77648164#2"/>
    </person>
    <person id="101" depart="505.00">
        <walk from="547497992" to="-45359877#12"/>
    </person>
    <person id="102" depart="510.00">
        <walk from="192671949#1" to="-5171331#0"/>
    </person>
    <person id="103" depart="515.00">
        <walk from="125072553#5" to="-169116507#0"/>
    </person>
    <person id="104" depart="520.00">
        <walk from="1175931568#1" to="968763900"/>
    </person>
    <person id="105" depart="525.00">
        <walk from="-840062940#1" to="4750188#0"/>
    </person>
    <person id="106" depart="530.00">
        <walk from="166140983#1" to="13444210#0"/>
    </person>
    <person id="107" depart="535.00">
        <walk from="8752620#3" to="987846923"/>
    </person>
    <person id="108" depart="540.00">
        <walk from="23706733#1" to="45360164#2"/>
    </person>
    <person id="109" depart="545.00">
        <walk from="-4497322#3" to="101513474#0"/>
    </person>
    <person id="110" depart="550.00">
        <walk from="892553118" to="263129212"/>
    </person>
    <person id="111" depart="555.00">
        <walk from="226578078#1" to="4644898#3"/>
    </person>
    <person id="112" depart="560.00">
        <walk from="-166140971#2" to="28072796#1"/>
    </person>
    <person id="113" depart="565.00">
        <walk from="202753580" to="55702650"/>
    </person>
    <person id="114" depart="570.00">
        <walk from="-45073628#6" to="888234303"/>
    </person>
    <person id="115" depart="575.00">
        <walk from="-20279756#0" to="-4764318#3"/>
    </person>
    <person id="116" depart="580.00">
        <walk from="28891937#3" to="4296031#9"/>
    </person>
    <person id="117" depart="585.00">
        <walk from="-723812733" to="-28891937#2"/>
    </person>
    <person id="118" depart="590.00">
        <walk from="725686376#0" to="-736311238"/>
    </person>
    <person id="119" depart="595.00">
        <walk from="28891937#0" to="380618971#0"/>
    </person>
</routes>
