<?xml version="1.0" encoding="UTF-8"?>

<!-- generated on 2023-07-03 14:17:58.958222 by randomTrips.py v1_18_0+0000-03ecfdea036
<configuration>
    <net-file value="glasgow.net.xml"/>
    <output-trip-file value="bus_trips.xml"/>
    <route-file value="bus_routes.rou.xml"/>
    <trip-attributes value="accel=&quot;0.8&quot;"/>
    <end value="600"/>
    <vehicle-class value="bus"/>
    <period value="30.0"/>
</configuration>
-->

<routes xmlns:xsi="http://www.w3.org/2001/XMLSchema-instance" xsi:noNamespaceSchemaLocation="http://sumo.dlr.de/xsd/routes_file.xsd">
    <vType id="bus" vClass="bus" accel="0.8"/>
    <trip id="0" depart="0.00" from="250478227#2" to="-123192869" type="bus"/>
    <trip id="1" depart="30.00" from="-4570535" to="-401747361" type="bus"/>
    <trip id="2" depart="60.00" from="385312769" to="30726907" type="bus"/>
    <trip id="3" depart="90.00" from="585960770#1" to="-20904356#0" type="bus"/>
    <trip id="4" depart="120.00" from="114001660#2" to="-132741026#0" type="bus"/>
    <trip id="5" depart="150.00" from="-372449781#1" to="200360644" type="bus"/>
    <trip id="6" depart="180.00" from="-125161615" to="-32921802#1" type="bus"/>
    <trip id="7" depart="210.00" from="26198727#2" to="217020764" type="bus"/>
    <trip id="8" depart="240.00" from="-37718298#0" to="241161449#1" type="bus"/>
    <trip id="9" depart="270.00" from="4548377#4" to="-10750732#0" type="bus"/>
    <trip id="10" depart="300.00" from="45382159#1" to="32267" type="bus"/>
    <trip id="11" depart="330.00" from="-708081824#0" to="-251261265" type="bus"/>
    <trip id="12" depart="360.00" from="81983852" to="-7665275#5" type="bus"/>
    <trip id="13" depart="390.00" from="-209250806#21" to="-223298256#1" type="bus"/>
    <trip id="14" depart="420.00" from="4798846#0" to="24299012#2" type="bus"/>
    <trip id="15" depart="450.00" from="45419760" to="38352149" type="bus"/>
    <trip id="16" depart="480.00" from="206879427#0" to="889977005#2" type="bus"/>
    <trip id="17" depart="510.00" from="-897250352#4" to="224382856" type="bus"/>
    <trip id="18" depart="540.00" from="4648621#0" to="24317553#4" type="bus"/>
    <trip id="19" depart="570.00" from="4904308#1" to="23654472" type="bus"/>
</routes>
