<?xml version="1.0" encoding="UTF-8"?>

<!-- generated on 2023-07-03 13:44:14.328214 by randomTrips.py UNKNOWN
<configuration>
    <net-file value="glasgow.net.xml"/>
    <output-trip-file value="bus_trips.xml"/>
    <route-file value="bus_routes.rou.xml"/>
    <trip-attributes value="accel=&quot;0.8&quot;"/>
    <end value="600"/>
    <vehicle-class value="bus"/>
    <period value="30.0"/>
</configuration>
-->

<!-- generated on 2023-07-03 13:44:14 by Eclipse SUMO duarouter Version v1_16_0+3763-8049632e6ba
<configuration xmlns:xsi="http://www.w3.org/2001/XMLSchema-instance" xsi:noNamespaceSchemaLocation="http://sumo.dlr.de/xsd/duarouterConfiguration.xsd">

    <input>
        <net-file value="glasgow.net.xml"/>
        <route-files value="bus_trips.xml"/>
    </input>

    <output>
        <output-file value="bus_routes.rou.xml"/>
        <alternatives-output value="NUL"/>
    </output>

    <time>
        <begin value="0"/>
        <end value="600"/>
    </time>

    <report>
        <no-warnings value="true"/>
        <ignore-errors value="true"/>
        <no-step-log value="true"/>
    </report>

</configuration>
-->

<routes xmlns:xsi="http://www.w3.org/2001/XMLSchema-instance" xsi:noNamespaceSchemaLocation="http://sumo.dlr.de/xsd/routes_file.xsd">
    <vType id="bus" vClass="bus" accel="0.8"/>
    <vehicle id="0" type="bus" depart="0.00">
        <route edges="24317629#0 -24317629#0 -24317627 -209248562#4 -209248562#3 -209248562#0 -45565399#2 -45565399#1 -45565399#0 -28216143#2 -28216143#0 -28216142 -24299417#14 -24299417#13 -24299417#12 24299579#0 24299579#1 24299579#2 1103797411 1103797413 1103797412 -209250806#29 -209250806#28 -209250806#27 -209250806#26 -209250806#25 -209250806#24 -209250806#23 -209250806#22 -209250806#21 -209250806#20 -209250806#18 -747825732#3 -747825732#2 -747825732#1 -747825732#0 -4854053#8 -4854053#7 -4854053#5 -4854053#4 -4854053#1 -4854053#0 939539208 121942676#0 121942676#1 121942676#2 121942676#3 939539206#0 939539206#1 -143753233 -4411864 -4411863#4 -4411863#2 -143755503#13 -143755503#11 -143755503#10 -143755503#8 -143755503#7 -143755503#6 -143755503#4 -143755503#3 -143755503#2 -143755503#1 -143755503#0"/>
    </vehicle>
    <vehicle id="1" type="bus" depart="30.00">
        <route edges="-4476040#6 4476040#6 4476040#7 4476040#8 4476040#9 4476040#10 9503861#0 9503861#1 -4677742#9 -4677742#8 -4677742#6 -4677742#5 -4677742#4 -4677742#3 -4677742#2 -4677742#1 -202753992#14 -202753992#13 -202753992#12 -202753992#11 -202753992#10 -202753992#9 -202753992#8 -202753992#7 -202753992#6 -202753992#5 -202753992#4 -202753992#3 -202753992#2 -202753992#1 -202753992#0 4628071#0 4628071#1 4628071#2 4628071#4 202753993#0 202753993#1 202753993#2 202753993#3 202753993#4 202753993#5 1097150696#0 1097150695#1 1097150695#2 156536760#1 156536760#2 1103822694 4839480 143784299 4839475 4470836 4470837 3469492#0 3469492#1 4345003 23814108 65001620#0 65001620#1 384189461 4799015 384188710 4799544 45360887#0 45360887#1 4799025 4799019 4799021#0 4799021#1 939539211 939539210#0 939539210#1 939539210#2 939539210#3 939539210#4 939539210#5 939539209 939539208 121942676#0 121942676#1 121942676#2 121942676#3 939539206#0 939539206#1 939539207#0 939539207#1 4301352#0 4301352#1 4301352#2 939539205#0 939539205#1 939539205#2 939539205#3 939539205#4 939539203#0 939539203#1 939539202 4295451#0 4295451#1 4295451#2 4295451#3 4295451#4 4295451#5 939539204 598321348#0 939539201 939539200#0 939539199#0 939539199#1 939539198 939539197 109022798#0 109022798#1 109022798#2 109022798#4 109022798#5 109022798#6 8032808#0 8032808#2 8032808#3 8032808#4 8032808#5 8032808#6 8032810#4 8032810#0 8032811 225790710#0 225790710#1 8032814#0 8032814#1 8032814#3 8032814#4 8032814#5 144597759#3 144597759#4 -144597771#8 -144597771#7 -144597771#6 -144597771#5 -144597771#3 -144597771#0 -35165195"/>
    </vehicle>
    <vehicle id="2" type="bus" depart="60.00">
        <route edges="382895557 -204867857#6 -204867857#5 -204867857#4 -204867857#3 -204867857#2 -204867857#1 -204867857#0 70228094#0 70228094#3 70228094#4 204867808#1 4995800#0 4995800#1 4995800#2 4995800#3 -4995798#8 -4995798#7 -4995798#6 -4995798#5 -4995798#4 -4995798#2 -4995798#1 -4995798#0 144176778#4 144176778#5 144176778#6 144176778#7 972410213 4713080 972410214 412175191#1 412175191#2 164090947#0 4803254 4803257#0 4803257#1 4803260 368520680 69067213 4803258 4296031#5 4296031#6 4296031#7 4296031#9 4296031#10 235044113#0 235044113#1 235044113#2 235044113#3 235044113#4 15534262#0 15534262#1 -354340064#12 -354340064#11 -354340064#10 -354340064#9 -354340064#8 -354340064#7 -354340064#6 -354340064#5 -354340064#2 -354340064#1 -354340064#0 -4764302#2 -4764302#0 -4340835#3 -4340835#2 -4340835#1 -421880890 -421880891 -4340834 -177461766#4 -177461766#3 -177461766#2 -177461766#1 -177461759#2 4329331#2 29128149#0"/>
    </vehicle>
    <vehicle id="3" type="bus" depart="90.00">
        <route edges="544352990 389583132#0 389583132#1 24247209#0 24247209#1 545578004 545375954#3 545375954#4 545375954#0 545375954#1 -229791620#2 -229791620#1 382886186#0 382886186#1 382892934#0 382892934#1 382886582#0 382886582#1 -225631527#2 -225631527#1 -5203959 -45838561 -5203960#1 -389584479#2 -389584479#1 -389584479#0 389584478#0 158366451#1 158366451#2 942627347#0 942627347#1 888706268 156831894#1 942627350 158366453#0 158366453#1 158366453#2 263438817#0 263438817#1 263438817#2 263438817#3 263438817#4 263438817#5 263438817#6 263438817#7 -120316916 -24299866#24 -24299866#23 -24299866#22 -24299866#21 -24299866#20 -24299866#19 -24299866#18 -24299866#16 -24299866#15 -24299866#14 -24299866#13 -24299866#12 -24299866#11 -24299866#9 -24299866#8 -24299866#7 -24299866#6 -24299866#5 -24299866#3 -24299866#2 -24299866#1 1102403762 4548426#0 4548426#1 4548426#2 4548426#3 202754595#0 202754595#1 202754595#2 202754595#3 202754596#1 -242773832#7 -242773832#6 -242773832#5 -20903307#3 20903342#0 20903342#1 20903342#2 20903342#3 20903342#4 -20903342#4 -20903342#3"/>
    </vehicle>
    <vehicle id="4" type="bus" depart="120.00">
        <route edges="-940159536#0 178065170 45409539 250475788#0 250475788#1 250475788#2 250475788#3 250475788#4 250475788#5 45409540#0 45409540#1 45409540#2 45409540#3 45409540#4 45409540#5 145348390#0 145348390#1 145348390#2 145348390#3 145348390#4 145348390#5 145348390#6 209281127 31255612 118794905 31255613#0 31255613#1 31255614 145348391#0 145348391#1 145348391#2 145348391#4 145348391#5 145348391#6 145348391#7 250475811#0 250475811#1 250475811#2 250475811#3 250475811#4 250478232#1 202753587 170560360 417577245 22731341#0 22731341#1 55668654 384218092#0 384218092#1 55668655#0 55668655#1 -706496749#2 -706496749#1 -706496749#0 239811653 164500948#0 -156536760#2 -156536760#1 -1097150695#2 -1097150695#1 -4475203#0 -685023881#3 -685023881#1 -685023881#0 -4494913#12 -4494913#11 -4494913#10 -4494913#9 -4494913#8 -4494913#7 -4494913#6 -4494913#5 -4494913#4 -4494913#3 -4494913#2 -4494913#1 -4494913#0 4741290 -83607382#8 -83607382#6 -83607382#5 -83607382#3 -83607382#2 -83607382#1 -83607382#0 -595322020#3 -595322020#2 -595322020#1 -595322020#0 -1097150694 -4521173 -132741010#1 -132741010#0 132741009 431740498#1 431740498#2 431740498#3 431740498#4 -14593585#2 -14593585#1"/>
    </vehicle>
    <vehicle id="5" type="bus" depart="150.00">
        <route edges="-30879719#1 -30879719#0 209281126#1 209281126#2 209281126#3 209281126#4 -202753588#5 -202753588#4 -202753588#3 -202753588#2 -202753588#1 -202753588#0 30880031#1 30880088 30880087 6182168 166125740 30879991#0 30879991#1 30879991#2 -951318445 -369581050#5 -369581050#4 -369581050#3 -369581050#2 -369581050#1 -369581050#0 -369581049 -206594812#9 -206594812#8 -206594812#6 -206594812#4 -206594812#3 -206594812#2 -206594812#1 -206594812#0 24317879 45074755#0 -24317964#4 -24317964#3 -24317964#2 -24317964#1 -24317964#0 -45565400#4 -45565400#3 -45565400#2 -45565400#1 -45565400#0 -209248562#4 -209248562#3 -209248562#0 -45565399#2 -45565399#1 -45565399#0 -28216143#2 -28216143#0 -28216142 -24299417#14 -24299417#13 -24299417#12 24299579#0 24299579#1 24299579#2 1103797411 -6182158#15 19785210#0"/>
    </vehicle>
    <vehicle id="6" type="bus" depart="180.00">
        <route edges="-143755503#6 -143755503#4 -143755503#3 -143755503#2 -143755503#1 -143755503#0 -4764318#3 -4764318#2 -4764318#1 -4764318#0 4764319 380100956 226152921#1 226150745 152135172 102730103 4345002#0 4345002#1 3469493 579403732 579403734 4470835 1801 1126700706 124452933 3469486 216530233 478853690 478853371 55668656#1 891957416 202753581#0 202753581#1 891957415#0 891957415#1 250478231#0 250478231#1 218310239#0 -145348391#7 -145348391#6 -145348391#5 -145348391#4 -145348391#2 -145348391#1 -145348391#0 -31255614 -31255613#1 -31255613#0 -118794905 -31255612 -209281127 -145348390#6 -145348390#5 -145348390#4 -145348390#3 -145348390#2 -145348390#1 -145348390#0 -45409540#5 -45409540#4 -45409540#3 -45409540#2 -45409540#1 -45409540#0 30878902#0 30878902#1 30878902#3 30878902#4 30878902#5 30878913 30878942#0 30878942#2 -30878942#2"/>
    </vehicle>
    <vehicle id="7" type="bus" depart="210.00">
        <route edges="24324842#3 24324842#4 24232504#6 24232504#7 24232504#8 24232504#9 -196221556 -4570591 -66975015 239814052#0 239814052#1 239814052#2 239814052#3 239814052#4 239814052#5 239814052#6 239814052#7 239814052#8 239814052#9 239814052#10 239814052#11 239814052#12 239814052#13 598905014#1 20898858#1 20898858#2 20898858#3 -4570549#3 -4570549#2 -4570549#1 -4570549#0 -4570548#2 -4570548#1 -4570548#0 -242773833#3 -242773833#2 -242773833#1 -242773833#0 20901362#0 -20907297#4 -20907297#2 20907297#2"/>
    </vehicle>
    <vehicle id="8" type="bus" depart="240.00">
        <route edges="-30880116#0 202753588#3 202753588#4 202753588#5 31255483#0 31255483#1 31255483#3 31255483#4 229244583#0 229244583#1 229244583#2 30880047#0 30880047#1 1100617061 143734635#0 143734635#1 143734635#2 143734635#3 143734635#4 143734635#5 143734635#6 202753583#0 202753583#1 250475811#0 250475811#1 250475811#2 250475811#3 250475811#4 250478232#1 202753587 170560360 417577245 22731341#0 22731341#1 55668654 384218092#0 384218092#1 55668655#0 55668655#1 -706496749#2 -706496749#1 -706496749#0 239811653 164500948#0 -156536760#2 -156536760#1 -1097150695#2 -1097150695#1 -4475203#0 -685023881#3 -685023881#1 -685023881#0 -4494913#12 -4494913#11 -4494913#10 -4494913#9 -4494913#8 -4494913#7 -4494913#6 -4494913#5 -4494913#4 -4494913#3 -4494913#2 -4494913#1 -4494913#0 4741290 -83607382#8 -83607382#6 -83607382#5 -83607382#3 -83607382#2 -83607382#1 -83607382#0 -595322020#3 -595322020#2 -595322020#1 -595322020#0 -1097150694 -4521173 -132741010#1 -132741010#0 132741009 431740498#1 431740498#2 431740498#3 431740498#4 431740498#5 431740498#7 24246761#1 24246761#2 24246761#3 24246798"/>
    </vehicle>
    <vehicle id="9" type="bus" depart="270.00">
        <route edges="45565399#1 45565399#2 209248562#0 209248562#3 209248562#4 45565400#0 45565400#1 45565400#2 45565400#3 45565400#4 -4470831#2 -4470831#1 -4470831#0 -199097890#1 -199097890#0 -45074753#9 -45074753#8 -45074753#7 -45074753#6 -45074753#5 -45074753#4 -45074753#3 -45074753#2 -45074753#1 -45074753#0 -4470838#3 -4470838#2 -4470838#1 -4470838#0 45568798#0 45568798#1 45568798#2 45568798#3 209262053 145348933 45568793#0 45568793#1 4470840#1 4470840#2 45787318#0 45787318#1 -45773042#0 -4470839#4 -4470839#3 -4470839#2 -4470839#1 -4470839#0 -210429351#1 -210429351#0 -45051111#1 -45051111#0 28380058#0 28380058#1 28380058#2 185136473 185136472 45074530 4497320 4397805 4521153#0 4521153#1 4521153#2 20448023 990894174 -4745074 -1089452022#5 -1089452022#4 -1089452022#3 -1089452022#2"/>
    </vehicle>
    <vehicle id="10" type="bus" depart="300.00">
        <route edges="4548377#10 4548377#11 -4548377#11 -4548377#10 -4548377#9 -4548377#7 -4548377#5 -4548377#4 -4548377#3 -4548377#2 -4548377#1 -4494926#23 -4494926#22 -4494926#20 37681351#0 37681351#1 37768766 37768772#0 37768772#1 37768772#2 -202753992#5 -202753992#4 -202753992#3 -202753992#2 -202753992#1 -202753992#0 4628071#0 4628071#1 4628071#2 4628071#4 202753993#0 202753993#1 202753993#2 202753993#3 202753993#4 202753993#5 1097150696#0 1097150695#1 1097150695#2 156536760#1 156536760#2 1103822694 4839480 143784299 4839474#0 4839474#1 170560357 891957416 202753581#0 202753581#1 891957415#0 891957415#1 250478231#0 250478231#1 218310239#0 -145348391#7 -145348391#6 -145348391#5 -145348391#4 -145348391#2 -145348391#1 -145348391#0 -31255614 -31255613#1 -31255613#0 -118794905 -31255612 -209281127 31000811#0 31000811#1 31000811#2 31000811#3 31000811#4 31000811#5 209281125#1 209281125#2 209281125#3 209247057#0 209247057#1 209247057#2 -30879543 -30879533#1 -209247060#0 -30879948#1 30879948#1"/>
    </vehicle>
    <vehicle id="11" type="bus" depart="330.00">
        <route edges="-4995516#5 -4995516#4 -4995516#3 5204092#4 5204092#5 5204092#6 5204092#7 5204092#8 5204092#9 204735313#5 4240200 -231761203 -5218779#1 -5218779#0 -5218778#4 -5218778#3 -5218778#2 -5218778#1 -5218778#0 -8073877#3 -8073877#2 -8073877#1 -8073877#0 -992498971 4571963#0 4571963#1 1103815102 4571965 233180596 386987321 1762#1 119028145#0 119028145#1 386959075 386959076 1074240853 1735 205818337 22731427 163763584 4287401 4784924 129627171 380554727 69067201 736368181 4798872 4798873 4764320#0 4764320#1 417402319 4829972 28379982#0 28379982#1 4701545 28379992#0 28379992#1 28379992#2 28379992#3 28379992#4 28379992#5 28379992#6 28379992#7 28379992#8 28379992#9 28379992#10 28379992#11 28379992#12 28379992#13 28379992#14 202737431#1 202737431#2 974404842 974404841 168901489 974404843 168901488#0 168901488#1 168901488#2 168901488#3 168901488#4 45074753#0 45074753#1 45074753#2 45074753#3 45074753#4 45074753#5 45074753#6 45074753#7 45074753#8 45074753#9 -199097888#1 -199097888#0 -45461362#3 24317950#0 24317950#1 -45074754#1 -45074754#0 -45074755#2 -45074755#1 -45074755#0 -24317879 24317507#0 24317507#1 24317507#2 24317507#3 24317507#4 24317509 24317510#0 24317510#1 24317510#2 24317510#3 24317510#4 24317510#5 24317510#6 166133655 166133657#0 166133657#1 166133657#2 -166133657#2 -166133657#1 -166133657#0 -166133655 -24317510#6 -24317510#5"/>
    </vehicle>
    <vehicle id="13" type="bus" depart="390.00">
        <route edges="-20904356#4 -20904356#3 20904356#3 20904356#4 -20904323#1 -20904323#0 -20903773#4 -20903773#3 -20903773#2 -20903773#1 179689712#1 179689712#4 179689712#5 179689712#6 179689712#7 179689712#8 179689712#9 -120316914#3 -120316914#2 -120316914#1 -120316914#0 -897250352#9 -897250352#8 -897250352#7 -897250352#6 -897250352#5 -897250352#4 -897250352#3 -897250352#2 -897250352#1 -897250352#0 -158371794#15 -158371794#14 -158371794#13 -158371794#12 4589102#0 4589102#1 734401500#0 734401500#1 734401500#2 734401500#4 734401500#5 4575046#1 4575046#2 4575046#3 4575046#4 4876099 8149218#0 8149218#2 4611122#0 4611122#1 4611122#2 4611122#3 4611122#4 4611122#5 -4568172#3 -4568172#2 -4568172#1 4568171#1 4568171#2 4568171#3 45788183#1 368523978#0 368523978#1 22752433#0 22752433#1 368523977 -4904402#3 -4904402#2 -4904402#1 -4904402#0 24324664#25 45073137 4904404 4904407#0 4904407#1 4904407#2 24325205#0 24325205#1 24325205#2 24325205#3 24325205#4 24325205#5 -45382012 -31000810#3 -31000810#2 -31000810#0 -145348389#0 145348390#4 145348390#5 145348390#6 31000811#0 31000811#1 31000811#2 31000811#3 31000811#4 31000811#5 209281125#1 209281125#2 -209281125#2"/>
    </vehicle>
    <vehicle id="14" type="bus" depart="420.00">
        <route edges="4745018#2 4744977#2 4744977#3 4744977#4 382336252 382336253#0 4745019#3 4745019#4 4745019#5 4745019#6 4745019#7 4745019#8 384186891#2 384186891#3 384189457 384189461 4799015 384188710 4799544 45360887#0 45360887#1 4799025 4799019 4799021#0 4799021#1 939539211 939539210#0 939539210#1 939539210#2 939539210#3 939539210#4 939539210#5 939539209 4854053#0 4854053#1 4854053#4 4854053#5 4854053#7 4854053#8 747825732#0 747825732#1 747825732#2 747825732#3 209250806#18 209250806#20 209250806#21 209250806#22 209250806#23 209250806#24 209250806#25 209250806#26 209250806#27 209250806#28 209250806#29 -1103797412 -1103797413 -6182158#15 -6182158#14 -6182158#12 -6182158#11 -6182158#10 -6182158#3 -6182158#2 -6182158#1 -6182158#0 180579432#0 180579432#1 180579432#2 180579432#3 180579432#4 180579432#5 180579432#6 180579432#7 180579432#9 199095127#0 199095127#1 199095127#2 18099133#1 202158823#0 52011314 24298973#1 24298973#2 24298973#4 24298973#5 24298973#6 24298973#7 24298973#8 24298973#9"/>
    </vehicle>
    <vehicle id="15" type="bus" depart="450.00">
        <route edges="45489030#0 45489030#1 223994755#7 223994755#8 223994755#9 223994755#10 223994755#0 223994755#1 223994755#2 223994755#3 223994755#4 223994755#5 45489028 209282808#0 209282808#1 209282808#2 46727329 -24232508 -45071166#1 -45071166#0 30879267#0 30879267#1 30879269#0 30879269#1 30879269#2 -30879252#2 -30879252#1 -30879252#0 209282117#0 209282117#1 209282117#2 209282117#4 30878916 -30878902#5 -30878902#4 -30878902#3 -30878902#1 -30878902#0 45409540#0 45409540#1 45409540#2 45409540#3 45409540#4 45409540#5 145348390#0 145348390#1 145348390#2 145348390#3 145348390#4 145348390#5 145348390#6 209281127 31255612 118794905 31255613#0 31255613#1 31255614 145348391#0 145348391#1 145348391#2 145348391#4 145348391#5 145348391#6 145348391#7 250475811#0 250475811#1 250475811#2 250475811#3 250475811#4 250478232#1 202753587 170560360 417577245 22731341#0 22731342 55668648 478847215 478847214 22821276 4470836 4470837 3469492#0 3469492#1 4345003 23814109 4763862 380554196 417402316 124452930 4798879 4764310 736368180 4287403 380554728"/>
    </vehicle>
    <vehicle id="16" type="bus" depart="480.00">
        <route edges="20279756#3 1157030914 -26303872 -20279746#3 -20279746#2 -20279746#1 -20279746#0 4470839#0 4470839#1 4470839#2 4470839#3 4470839#4 45773042#0 45773048 45787308 45786309#2 383167847 209263579 32405 45360553 45569651 198642283 4706944#0 4706944#1 4706944#2 -968763923#1 -968763923#0 -968763924 -4696644#2 4764010 4764011 4764012 417402315 124452930 4798879 4764310 736368180 23802711 380554729 69067222#0 69067222#1 102058907 226286791 595322007 -389802951#2 -389802951#1 -389802951#0 -203957021#3 -203957021#2 8751894#0 8751894#1"/>
    </vehicle>
    <vehicle id="17" type="bus" depart="510.00">
        <route edges="-7581303#4 -7581303#3 -7581303#2 -7581303#0 4592199#6 4592199#7 4592199#8 8104379#0 8104379#1 8104379#2 8104379#3 8104379#4 8104379#5 23219484 -232836120 -8752500#2 -8752500#1 -8752500#0 -888227533#2 -888227533#1 -888227533#0 -8104377 25845035#0 25845035#1 25845035#2 25845035#3 25845035#4 -404158550 -26404003 -12790898 -4287346#1 -4287346#0 -4545725#1 -990822939#0 -990822937 -990822938 -973334484#1 -973334484#0 -26404121#1 -26404121#0 -973334483#1 -973334483#0 -995103498#1 -25566799#1 -25566799#0 -990822936#2 -990822936#1 4876190#0 4876190#1 4876190#2 4876190#3 4876189 1058909732 4296031#0 4296031#1 4799422 380554725 69067201 736368181 4798872 69067218 4763830 4345001 4345002#0 4345002#1 3469493 579403732 579403734 4470835 1801 1126700706 124452933 24324609 45494754 114331028 118222680#0 4853108 368523975 368523976 368523979#1 368523979#2 -45788183#1 -4568171#3 -4568171#2 -4568171#1 45787696 45787695#0 45787695#1 45787695#2 45787695#3 22736800#0 22736800#1 209284796#0 209284796#1 209284796#2 209284796#3"/>
    </vehicle>
    <vehicle id="18" type="bus" depart="540.00">
        <route edges="4644897#2 4644897#3 221112625#0 221112625#1 4573820#0 4573820#1 221112638 45049553 203403883#0 143769303 4483892#0 4483892#1 4483893#0 4483893#2 4483893#3 4483893#4 45051085 4397805 4521153#0 4521153#1 4521153#2 1088915061 4981556#0 4981556#1 4981556#3 4981556#4 -1089452022#0 -47168895#1 -47168895#0 -4494913#5 -4494913#4 -4494913#3 -4494913#2 -4494913#1 -4494913#0 983637050#0 983637050#1 983637050#2 8119016#0 8119016#1 114002811#0 114002811#1 114002811#2 156536765 -28891695#2 102147604#0 102147604#1 -4548199#3 -4548199#2 -4548199#1 -4548199#0 4548298#0 4548298#1 4548298#2 4548298#3 4548298#4 4548298#5 -4712909#8 -4712909#7 -4712909#6 -4712909#5 -4712909#4 -4712909#3 24316719#0"/>
    </vehicle>
</routes>
