<?xml version="1.0" encoding="UTF-8"?>

<!-- generated on 2023-07-03 13:45:25.388357 by randomTrips.py UNKNOWN
<configuration>
    <net-file value="glasgow.net.xml"/>
    <output-trip-file value="ped_trips.xml"/>
    <route-file value="ped_routes.rou.xml"/>
    <pedestrians value="True"/>
    <end value="600"/>
    <period value="5.0"/>
</configuration>
-->

<!-- generated on 2023-07-03 13:45:20 by Eclipse SUMO duarouter Version v1_16_0+3763-8049632e6ba
<configuration xmlns:xsi="http://www.w3.org/2001/XMLSchema-instance" xsi:noNamespaceSchemaLocation="http://sumo.dlr.de/xsd/duarouterConfiguration.xsd">

    <input>
        <net-file value="glasgow.net.xml"/>
        <route-files value="ped_trips.xml"/>
    </input>

    <output>
        <output-file value="ped_routes.rou.xml"/>
        <alternatives-output value="NUL"/>
    </output>

    <time>
        <begin value="0"/>
        <end value="600"/>
    </time>

    <report>
        <no-warnings value="true"/>
        <ignore-errors value="true"/>
        <no-step-log value="true"/>
    </report>

</configuration>
-->

<routes xmlns:xsi="http://www.w3.org/2001/XMLSchema-instance" xsi:noNamespaceSchemaLocation="http://sumo.dlr.de/xsd/routes_file.xsd">
    <person id="0" depart="0.00">
        <walk edges="27789025 -996363869 981484581 8080067#10 8080067#9 8080067#8 -8080067#7 8080067#6 8080067#4 8080067#3 8080067#2 8080067#1 8080067#0 -176982395#6 -176982395#7 -176982395#8 -176982395#9 -176982395#10 -176982395#11 -176982395#12 -176982395#14 -101987067 -52128827#0 -52128827#1 429651445#4 543045847#0 543045847#1 727426069 -16282110#0 -969769502 139718604#6 -139718604#4 -139718604#2 139718604#1 -139718604#0 23706686#0 266253852 -23802666#5 23802666#4 23802666#3 -23802666#2 23802666#1 -23802666#0 8751900#2 41863459#0 -131860123#0 -131860123#1 -203955671#0 -90682376 -205819136 -201700815 -1003917173 -4953265 -4953267#1 -4953267#0 26403932 4474113#0 4474113#1 28776351#1 28776351#2 28776351#3 28776351#4 4494911#0 4494911#1 4494911#2 4494911#3 4494911#4 -4494912#0 -4494912#1 4494912#2 -4494912#3 -4494912#4 -4494912#5 12682521 -4741290 983637050#0 983637050#1 983637050#2 8119016#0 8119016#1 4494926#0 172206444#0 1061889144#0 1061889144#1 1061889146#1 -4494926#3 -4494926#4 4494926#5 4494926#7 4494926#10 -4494926#12 4548297#6 198909236#0 198909236#1 -198909234#0 198909234#1 -198909234#2 -198909234#3 -198909238 12083245#1 12083245#2 12083245#3 4644950#8 4644950#6 -12083250#0"/>
    </person>
    <person id="1" depart="5.00">
        <walk edges="-638361147 30624744#10 -30624744#9 30624744#8 -30880282#5 32533633#7 32533633#6 30880272 895903255 895903254 24324664#6 -24324664#5 24324664#3 24324664#2 24324664#0 417625399#1 417625399#0 30880234#1 100536876#1 100536876#0 889980345#1 889980345#0 1100617068#1 -250478227#0 250478227#1 -250478227#2 250478227#3 -250478227#4 -250478227#5 553966989#0 -553966989#1 -553966989#2 -553966989#3 -553966991 -553966990 736614819#0 8073063#0 45462832 45462773#1 45462773#0 45462833#0 45462833#1 45462294#0 -45462293 45461851#0 45461850#1 -45461850#0 45462174 954418586 954418585#1 954418585#0 45462135#1 -45462135#2 -45462135#3 45462133#3 -45462133#2"/>
    </person>
    <person id="2" depart="10.00">
        <walk edges="45362194 467797310#2 467797310#1 250475811#4 1100617068#1 889980345#0 889980345#1 100536876#0 100536876#1 30880234#1 417625399#0 417625399#1 485691995#0 485899790#1 -45494613#1 -895933691 -895933692 55668652#4 55668652#3 55668652#2 55668652#0 478849147 478849145#1 -478849145#0 55668651 8073060 250475790#1 -250475790#0 -706496749#2 -706496749#1 -706496749#0 -239811653 -164500948#0 156536760#2 -156536760#1 -1097150695#2 1097150695#1 -4475203#0 -685023881#3 685023881#1 685023881#0 -4494913#12 -4494913#11 -4494913#10 -4494913#9 -4494913#8 -4494913#7 4494913#6 -4494913#5 -4494913#4 -4494913#3 -4494913#2 -4494913#1 -4494913#0 -4741290 -83607382#8 83607382#6 83607382#5 83607382#3 -83607382#2 83607382#1 -83607382#0 595322020#3 1175931576#0 1175931585#6 -595322020#1 -595322020#0 -1097150694 -4521173 -132741010#1 -132741010#0 4614747 -431732039#3 1111611018 133902374#1 -133902374#0 14592025#1 1111611019 431732039#1 -132741018#3 431732045 204867807 204867806#1 1127840645#0 485744474#3 144176774#5 144176774#6 144176774#7 144176774#8 144176774#9 144176774#10 42250357#5 -42250357#4 -42250357#3 42250357#2 42250357#0 385305539 739539654#1 -739539654#0 389376587#0 4483407#0 -4483407#1 -4483407#2 -4483407#3 4483407#4 -4483407#5 -203910670#0 -203910670#1 -203910670#2 -203910670#3 -203910670#4 203910670#5 -203910670#6 5203969#0 5203969#1 41483050 385315764 41483052#0 41483052#1 5203968#2 5203968#3 5203968#4 5203970#0 -5203972 -385344417 -23219523#0 23219523#1 -7997160#0 7997160#1 -7997160#2 -7997160#3 -7997160#4 -7997160#5 7997160#7 -232250644#0 -232250644#1 -691668595 -691669615 35067032#5 256648817#1 256648817#0 131894885#5 131894886#0 131894886#1 423147799#3 423147799#2 423147799#1 423147799#0 35067030#7"/>
    </person>
    <person id="3" depart="15.00">
        <walk edges="8032814#5 -8032814#4 8032814#3 -8032814#1 -8032814#0 -225790710#2 -8032812 -8032810#2 19102954#6 19102954#5 19102954#4 19102954#3 19102954#1 19102954#0 728069414#1 728069414#0 19102953#6 19102953#5 19102953#2 19102953#1 19102953#0 -4327000#6 4327000#7 4327000#9 4327000#10 4327000#11 -4327000#13 -18268880 -18268881 859860550#1 859078572#46 859078572#47 859078572#48 859078572#49 859078572#50 859078572#51 859078572#52 859078572#53 859078572#54 859078572#55 859078572#56 859078572#57 859078572#58 859078572#59 859078572#60 859078572#61 859078572#62 859078572#63 859078572#64 859860564#5 859860564#0 859078572#68 859078572#69 859078572#70 859078572#71 859078572#72 859078572#73 859078572#74 859078572#75 859078572#76 859080016#0 859080016#3 859078496#21 859078496#20 859078496#19 859078496#18 859078496#17 859078496#16 859078496#15 859078496#14 859078296#1 177450945#4 177450945#5 -24299103#1 -212545795#4 -146912723 212545786#0 -136485847 -210876963#2 -210876963#3 -210876963#4 -210876963#5 -210876963#6 1127321553 19785213#0 19785213#1 -19785211#0 -19785211#1 -19785211#2 19785211#3 1117886997 209250806#23 -209250806#22 -209250806#21 209250806#20 209250806#18 -209250806#15 209250806#9 209250806#8 209250806#6 209250806#5 209250806#3 23183238 23183235#1 23183235#0 28379992#0 37801993 45361333 -45358929#0 45358929#1 -45358390#0 -45358390#1 45358444#0 45358444#1 325815777#1 4706944#1 4706944#0 198642283 25774329#0 45360506#0 -45360504#2 4904184#7 4904184#6 489409929#1 -489409929#0 -489409930 85145099#3 -4904150#1 4904150#2 45359120#4 45359120#3 -45359120#2 45359120#1 -4904139#0 -4904139#1 -4904139#2 -4904139#3 -4904139#4 -4904139#5 -4904139#6 -4470839#4 -4470839#3 -4470839#2 -4470839#1 -4470839#0 4839472#1 -4839472#0 -20279759#0 20279759#1 -20279759#2"/>
    </person>
    <person id="4" depart="20.00">
        <walk edges="119502495#1 119502495#2 22492187#0 586855863 586848225 4602140 586848215 -28776340#25 45407003 220157643#0 -24317008#2 24317008#1 151427223#1 151427352#1 -28776340#17 28776340#16 -28776340#14 -28776340#13 28776340#12 28776340#11 -28776340#10 -28776340#9 28776340#8 28776340#7 -28776340#6 28776340#5 -28776340#4 -28776340#3 -28776340#2 28776340#1 -4494926#23 -4494926#22 -4494926#20 -4494926#18 -4494926#17 4494926#16 4494926#15 -4494926#14 4494926#13 -4494926#12 4494926#10 4494926#7 4494926#5 -4494926#4 -4494926#3 1061889146#1 1061889144#1 1061889144#0 172206444#0 4494926#0 8119016#1 8119016#0 983637050#2 983637050#1 983637050#0 -4741290 -83607382#8 83607382#6 83607382#5 731204880 731204879 731204878 731204873#1 731204873#2 731204872#0 -77670352#0 77670352#1 1089451382#0 1175931569#0 1175931570#0 1175931568#1 262604451 386617898#1 386617898#0 4760219 431750720 -124905887#0 -4521172 4995802#4 -4995802#3 134416013 134416014 134416024#1 134416024#2 134416024#3 134416024#4 134416024#5 -14591302#1 -14591302#2 -77669301#1 -77669301#0 -8104173#2 -8104173#1 -5204135#0 -11339912#1 -11339912#0 9788059#2 9788059#1 4741295#11 4741295#10 10111727#1 10111727#0 -10111716#7 10111716#6 10111716#5 15090940#1 15090940#0 4741295#7 4741295#6 572200942#5 177295915#6 177295915#5 -672817316#1 380060006#1 380060006#2 -204735815#1 204735815#0 4589098 -203932824#13 203932824#12 -203932824#11 203932824#10 -203932824#9 203932824#8 203932824#7 -203932824#6 -203932824#5 203932824#4 -203932824#3 1084441274#0 1084441274#1 203932822#1 -203932822#0 -29089862#8 -29089862#7 -7277310#0 -7277312#2 -7277309 -7277304#1 -7277304#0 4806277#1 4806276#2 4806276#1 -4806276#0 -4806256 -1085175017 1085175016 1085175015#1 4806258#0 132703430 -132703430"/>
    </person>
    <person id="5" depart="25.00">
        <walk edges="-45102228#1 45102228#2 45102228#3 -45102228#5 69191433#4 382890516#2 382890516#1 382890516#0 -361864078 361864079 -45102621 45102225#1 -45102225#0 5203961#1 5203961#0 -5203959 -45838561 5203960#1 166267489#0 166267488 5203957#2 -5203957#3 -5203957#5 -5203957#6 5203957#7 -5203957#8 5203957#9 5203957#10 -5203957#11 -45103741#1 -45103741#0 24300160#1 160552723#1 160552723#0 10682393#1 169765593#0 -24316694#3 24316694#2 24316694#1 24316694#0 -158371791#5 -158371791#4 158371791#3 -158371791#1 4548298#5 -4548298#4 4548298#3 -4548298#2 -4548298#1 -101262447#0 207228644#0 151427224#1 12083242#0 -12083242#1 12083242#2 -12083242#3 12083242#4 -151433716#0 151433716#1 12083245#0 -198909238 4853105#3 4853105#2 -4853105#1 4853105#0 -187713558 147995566#1 -147995566#0 122443234#2 -122443234#1 -122443234#0 123907361 -1119876067 1119876068 4627858 26350821 4627857#0 4627857#1 -122443237#0 -878063674 4627857#3 4627857#4 -202753992#0 -4628071#0 -4628071#1 -4628071#2 -4628071#4 -202753993#0 -202753993#1 -202753993#2 -202753993#3 -202753993#4 -202753993#5 -1097150696#0 1097150695#1 -1097150695#2 -156536760#1 156536760#2 -164500948#0 -239811653 -706496749#0 -706496749#1 -706496749#2 -250475790#0 250475790#1 8073060 55668651 -478849145#0 478849145#1 478849147 55668652#0 55668652#2 55668652#3 55668652#4 -895933692 -895933691 -45494613#1 485899790#1 485691995#0 417625399#1 417625399#0 30880234#1 100536876#1 100536876#0 889980345#1 889980345#0 1100617068#1 250475811#4 467797310#1 467797310#2 467797310#3 467797310#4 45362193#1 467797315#0 467797315#1 174645907#4 -467797320#0 -467797320#1 -467797320#2 133531853#1 30880162 33508807#1 33508807#0 33508808 143734635#4 143734635#3 143734635#2 -143734635#1 -143734635#0 1100617061 -30880047#1 -30880047#0 229244583#2 229244583#1 -229244583#0 30880078#0 -30880078#1 143734647#0 143734647#1 -30880116#6 -30880116#2 30880116#1 1116314513 143734673 72873650#2 72873650#1 30879835#0 30879835#1 30879834#4 30879834#3 30879834#2 30879938 -30879962#0 -30879962#1 -30879960#3 -209246299#4 -178065170 178065173 30832512#5 30832512#6 30832512#7 30832508 -940159535#2 182555785#1 182555785#0 -209245894#3 182565062#0"/>
    </person>
    <person id="6" depart="30.00">
        <walk edges="-125022364#2 -125022364#3 125022361 382886203#0 902809742#2 902809744#1 902809744#0 544352984 -544352987#0 -544352987#1 -544229155#0 544229155#1 -544229155#3 -544229155#4 -544226491 -549740319#2 549740319#1 549740319#0 -549740318 -275577727 -134412201 382896066#1 357192810#0 679761824#0 679761824#1 45757804#0 -24246823#1 -24246823#0 -24246817#3 24246817#2 24246817#1 -24246817#0 136752765#2 45757802#0 45757803 74610049 24246761#6 24246761#5 -24246761#4 -24246761#3 -24246761#2 24246761#1 45408658#1 45408658#0 -4642281#1 -4642281#0 14593590 330113323 330113324#0 101950823#0 85418889#2 34322404#0 34322404#1 -8073960 8073953#1 -8073953#0 8073953#5 8073958 8073959#1 101999826 -4677570#1 101999829 117380599 101262445#0 101262445#1 -101262447#0 207228644#0 151427224#1 12083242#0 -12083242#1 12083242#2 -12083242#3 12083242#4 -151433716#0 151433716#1 12083245#0 -198909238 4853105#3 4853105#2 -4853105#1 4853105#0 -187713558 147995566#1 -147995566#0 122443234#2 -122443234#1 -122443234#0 123907361 -1119876067 1119876068 4627858 26350821 4627857#0 4627857#1 -122443237#0 -878063674 4627857#3 4627857#4 -202753992#0 -4628071#0 -4628071#1 -4628071#2 -4628071#4 -4628070#0 387049093#15 387049093#14 387049093#13 387049093#12 387049093#11 387049093#10 387049093#9 387049093#8 387049093#7 118991313#5 118991313#4 -387726787 387726780#1 387726780#2 387726780#3 387726781 387726782 387049093#4 -387804885 387804886 387893899#0 -387893899#0"/>
    </person>
    <person id="7" depart="35.00">
        <walk edges="29376087#0 203029181 -29376191 -29376190 1150445644 25173840#2 162775797#2 993803446#0 -993803439#1 -993803439#0 4570691 993803450#0 993803450#1 1150445642#0 1150445642#1 209286646#0 -209286646#1 209286646#2 -209286646#3 4570694 197572261 47163666 -242773837 -242773841#0 -242773841#1 -242773841#2 162775799 -4677739#1 -4677739#0 587076749 587076747 -402270041 -402270040#0 -402270040#1 -402270040#2 -402270040#3 -402270040#4 -402270040#5 4677741#10 -4677741#8 -4677741#7 -4677741#6 -4677741#5 -4677741#3 -4677741#2 -4677741#1 -4677741#0 1119896666#1 -1119896666#0 -1119896665 -4677742#17 -4677742#16 -4677742#15 -4677742#14 4677742#13 -4677742#12 -4677742#10 -4677742#9 -4677742#8 -4677742#6 -4677742#5 -4677742#4 -4677742#3 -4677742#2 -4677742#1 -202753992#14 -202753992#13 -202753992#12 -202753992#11 -202753992#10 -202753992#9 -202753992#8 -202753992#7 -202753992#6 -202753992#5 -202753992#4 -202753992#3 -202753992#2 202753992#1 -202753992#0 -4475215#8 -4475215#7 -4475215#6 -4475215#5 -4475215#4 -4475215#2 -4475215#1 4475215#0 4521152#2 -4521152#1 -4521152#0 -1088915060#0 -1088915061 -4521153#2 -4521153#1 -4521153#0 -4397805 -45051085 892553115 987846923 892553116#1 892553116#0 892553118 894981818 894981816#3 894981816#4 892553114#2 894981821#2 987846921 892553107 4483893#0 4483892#1 736261758 736261762 736261761 736261760 -736261759 30023799#0 30023799#1 198044382#3 -45886022 -143769305 45051066 221119203#0 221119203#1 221119203#2 221119202#0 221119202#1 4798846#0 4798846#1 257885008#2 257885008#0 257885007 262604454#1 32565783#1 -380556683#0 -429651445#1 429651445#2 429651445#4 -52128827#1 -52128827#0 -101987067 -176982395#14 -176982395#12 -176982395#11 -176982395#10 -176982395#9 -176982395#8 -176982395#7 -176982395#6 -176982395#4 -176982395#3 -176982395#2 -176982395#0 18096396#6 45838680 18096401#0 -18096401#1 -18096401#3 18096401#4 -18096401#5 45759365 -18096394#2 27775987#3 27775987#1 27775987#0 27775973#1 25728590#0 25728590#1 -25729152#3 25729152#2 -25729152#1 25729152#0 -208046019#1 -208046030#0 208046031#1"/>
    </person>
    <person id="8" depart="40.00">
        <walk edges="-45358928#0 -45358928#1 -45358929#0 45358929#1 -45358390#0 -45358390#1 45358444#0 45358444#1 325815777#1 4706944#1 4706944#0 198642283 25774329#0 45360506#0 -45360504#2 4904184#7 4904184#6 489409929#1 -489409929#0 -489409930 85145099#3 -4904150#1 4904150#2 45359120#4 45359120#3 -45359120#2 45359120#1 -4904139#0 -4904139#1 -4904139#2 -4904139#3 -4904139#4 -4904139#5 -4904139#6 -4470839#4 -4470839#3 -4470839#2 -4470839#1 -4470839#0 4839472#1 23605439 143927419 -45073628#5 -121929389 121929413#1 121929395#3 121929395#2 121929395#1 121929395#0 20279762#6 20279762#5 20279762#4 23605433#2 23605431#1 121929407#0 121929411#0 121929392 121929412#1 121929399 45359877#2 -45359877#3 23863001#0 23863001#1"/>
    </person>
    <person id="9" depart="45.00">
        <walk edges="555794500 555794498 555794496#0 59965140#6 59965140#7 59965140#8 156966682#4 156966682#3 59965320#1 4483408#0 -4483408#1 -4483408#4 571480486#1 571480485#0 571480485#1 -571480485#2 225017489#1 -225017489#2 -225017493#1 225017493#2 225017493#3 225017493#4 -225017493#5 739539656#0 739539656#1 -655090871 -655090874 739539655#2 739539655#0 389376587#1 -4806323#1 -4806323#2 -4806323#4 -4806323#6 -4806323#8 -144176778#0 -144176778#1 -144176778#2 144176778#3 144176778#4 -144176778#5 -144176778#6 -144176778#7 -972410213 -4713080 -972410214 -4713421#0 -4713421#1 -4713421#2 169763432 -11339909 -47171927#0 -12796510 35066914#0 -389802134#3 -389802134#2 -389802134#1 -389802134#0 -112804960#0 -5171322#2 -5171322#1 5171322#0 -203955671#0 -131860123#1 -131860123#0 41863459#0 8751900#2 -23802666#0 -23802666#1 -23802666#2 -23802666#3 -23802666#4 23802666#5 -266253852 -23706686#0 -139718604#0 -139718604#1 139718604#2 -139718604#4 139718604#6 -969769502 -16282110#0 727426069 543045847#1 543045847#0 429651445#4 -52128827#1 -52128827#0 -101987067 -176982395#14 -176982395#12 -176982395#11 -176982395#10 -176982395#9 -176982395#8 -176982395#7 -176982395#6 -176982395#4 -176982395#3 -176982395#2 -176982395#0 -594888675#6 594888675#5 594888675#4 594888675#3 -594888675#1 -594888675#0 -4340835#3 4340835#2 725978818#0 725978818#1 1058226691 725978816 42269403#1 421880890 -421880891 -4340834 177461766#4 177461766#3 177461766#2 177461766#1 -177461759#2 -1010182802#1 -158734875#16 158734875#15 -158734875#14 -158734875#13 228403620#0 458791978 4258938#2 -4258938#4 -4258938#5 -4258938#7 -4344247#0 -4344247#1 4344247#2 -28270747#5 -28270747#4 -28270747#3 -28270747#2 -28270747#1 -28270747#0 -998163598#7 -998163598#4 -998163598#3 -998163598#2 28270742#3 -28270742#4 28270742#5 28270742#6 -28270742#8 28270742#9 946119447#0 946119447#1 432603058#0 432603058#1 946119455 946119453 946119454 946119452 -4344898#2 4344898#3 -355557040#1 -355557040#2 355557040#3 -355557040#4 -355557040#5 355557040#8 4344922 -25419728#0 947004415 49912387#2 -198964340#0 238007320#1 -198964340#2 -198964340#3 -939539193#1 -939539193#0 -144595492#3 -144595492#2 -939539191#1 -939539190 -939539187 -939539186 -939539185 144595497 203516657 -939539184#0 -939539184#1 144595487#0 144595487#1 598333088 598333089 -203516662#1 -203516662#0 -4256323 203516659 -895142386 -144595498#0 42491140#0 -42491140#1 -45756258 -45756259 -177278150 144590670 -10305752"/>
    </person>
    <person id="11" depart="55.00">
        <walk edges="-890778747 -890778748#0 890778752 889984800#2 890778751 1119398511 -1119398512 45362090#1 45362090#0 45568795#2 45568795#1 45568795#0 -45568793#0 -145348933 209262053 -45568798#3 954038591 -172323595 -45568585#0 45568586 4973464#0 -33848283#1 -33848283#2 45569197 24299266#5 -24299266#4 24299266#3 24299266#2 24299266#1 -202737432#1 -202737432#0 202737433#1 209249182#14 -209249182#13 209249182#12 -209249182#11 209249182#10 -209249182#9 209249182#8 -209249182#7 -209249182#6 -209249182#5 -209249182#4 -209249182#3 -209249182#2 -209249182#1 -209249182#0 4701544#1 -4701544#0 -6182153#1 6182153#0 -6182152#1 6182152#0 -1103797413 -6182158#15 -6182158#14 -6182158#12 -6182158#11 -6182158#10 -6182158#3 -6182158#2 6182158#1 6182158#0 180579432#0 -180579432#1 -180579432#2 -180579432#3 -180579432#4 -180579432#5 -180579432#6 -180579432#7 -180579432#9 -199095127#0 -199095127#1 -199095127#2 -144597764#0 -144597764#1 -144597764#2 -144597764#3 -144597764#4 -144597764#5 -144597764#6 -144597766#0 -144597766#1 -144597766#2 23149804#2 23149804#1 23149804#0 -25600655#8"/>
    </person>
    <person id="12" depart="60.00">
        <walk edges="896732746#0 896732748 896732749 896732751 896732747 896732750#1 32533633#3 -32533633#2 30880259#0 -30880259#1 218274832 30624744#2 12118654#0 12118654#1 12118656#1 30624754 30624755 30624756#0 32533668 32533670 -202753994#4 -202753994#5 -202753994#6 -202753994#7 -202753994#8 -202753994#9 -202753994#10 -202753994#11 -202753994#12 -202753994#13 -202753994#15 -202753994#16 202753994#17 -202753994#18 -202753994#19 -202753994#20 4476795#0 4476795#1 4476040#1 4476040#2 -4476040#3 4476040#4 -4476040#5 -4476040#6 -4476040#7 4476040#8 -4476040#9 4476040#10 9503861#0 9503861#1 -4677742#10 -4677742#12 4677742#13 -4575045#0 -4575045#1 -4575045#2 4575045#3 -4575045#4 4575045#5 1119896660 -1119896661#0 1119896661#1 -4548310 4644953 -4644952#3 4644952#2 14103700#0 -14103700#1 14103692#1 14103696#0 734401500#5 -734401500#4 -101262453#0 162222963 45406333#1 45406333#0 24316918#3 24316918#2 24316918#1 881797006 -881797006"/>
    </person>
    <person id="13" depart="65.00">
        <walk edges="-206594813#5 -206594813#4 -206594813#3 -206594813#2 -206594813#1 -206594813#0 -4470831#5 1119245946 203932811#0 203932811#1 203932811#2 1119245947 4470831#2 -4470831#1 4470831#0 -199097890#1 -199097890#0 -45074753#9 -45074753#8 -45074753#7 -45074753#6 -45074753#5 -45074753#4 -45074753#3 -45074753#2 -45074753#1 -45074753#0 -37802142#1 -37802142#2 -37802142#3 -37802142#4 -37802142#5 -37802142#6 37802168#5 37802168#4 37802168#3 37802168#2 37802168#1 -37802168#0 37802170 1119398509#1 889984805#3 1000105315#5 1000105315#4 1000105315#3 1000105315#2 1000105315#1 1000105315#0 889984820#0 1156855916 1156855913#1 1156855913#0 1156855911#2 1156855912 1156855907#1 1156855908#0 1156855910 1156855906#1 1156855906#0 1156855906#4 1156855905 1156855903#1 553931253#2 553931253#0 -1039370199 -250478229#5 250478229#4 250478229#2 250478229#1 -250478229#0 20279843 202753580 -22731340#0 -22731339 202753584 -895933691 -895933692 55668652#4 55668652#3 55668652#2 55668652#0 478849147 478849145#1 -478849145#0 55668651 8073060 156536756#0 115889304#0 114323979#0 156536756#2 -156536756#3 202753994#0 -202753994#1 199665130#1 114323989#0 114323976#0 -202753994#3 -202753994#4 -202753994#5 -202753994#6 -202753994#7 -202753994#8 -202753994#9 -202753994#10 -202753994#11 -202753994#12 -202753994#13 -202753994#15 -202753994#16 202753994#17 -202753994#18 -202753994#19 -202753994#20 -202753994#21 202753994#22 -202753994#24 -202753994#25 -202753994#27 -202753994#28 -202753994#29 45787696 -45787695#0 4904411#0 118198691#4 118198691#3 4904413#2 4904413#1 118198691#1 118198691#0 45787695#3 1010647384 99791027 4552649#0 -4552649#1 -4552649#2 -4552649#4 -4552649#5 294354171#2 4570465 -4981563#0 -4570533#0 -4570533#1 4570532#0 4677741#10 -402270040#5 -402270040#4 -402270040#3 -402270040#2 -402270040#1 -402270040#0 -402270041 587076747 587076749 -4677739#0 -4677739#1 162775799 -119502494 202753991#0 -202753991#1 202753991#2 -202753991#3 202753991#4 202753991#5 -242773838#0 -242773838#1 -242773838#2 -47166963 47165016#0 -47165016#1 -202754594#0 202754594#1 -202754594#2 202754594#3 -20903494#0 -20903494#1 -20903494#2 20903494#3 -20903494#4 -20903494#5"/>
    </person>
    <person id="14" depart="70.00">
        <walk edges="691669711#0 556378179#1 556378177#0 256648821#1 -7997154#0 -7997154#1 7997161#1 -7997161#0 1102484467#9 -7996947 41685383#0 41685383#1 41685383#2 41685383#3 41685383#4 994951883#0 -892866159#0 892866159#1 892866163#0 892866163#1 -4713086#3 -4713086#2 4713086#1 44138299#0 44138299#1 44138299#2 -5204079#0 944632790#1 -170485182#1 -170485180 169761248#2 169761248#3 169761257#0 -1021459833#0 -1021459833#1 169761212#2 169761212#1 -169761212#0 -23105638 23105624#1 4713083 -5204140#0 -5204140#1 164087246#1 164087246#3 -164087246#4 412177235#1 412177235#3 412177235#4 -8073108#1 8073108#2 93269804#0 -93269804#1 534200273#1 534200273#0 35066923 35066922#0 -35066921 41863458 -454051240#0 777742066#1 777742066#0 42205107#0 42205107#1 389802135#2 389802135#3 389802135#4 389802135#5 389802135#6 4644896#0 4644896#1 4644896#2 4644896#3 205819137#1 205819137#2 205819137#5 205819137#6 221119204#0 221119204#1 221119204#2 221119204#3 221119204#4 221119204#5 4745106#0 4745106#1 388878635 4745105 -45359293 45359294#3 45359294#1 -45359294#0 -4745020#0 968763903#0 444472194 384186894#1 384186233 384169518 45570241 45570240#0 45360506#1 25774329#0 45570414 198642281#1 198642281#0 4745087 -742377812#1 -742377812#0 -202737432#4 202737432#3 -202737432#2 -202737432#1 -202737432#0 202737433#1 209249182#14 -209249182#13 209249182#12 -209249182#11 209249182#10 -209249182#9 209249182#8 -209249182#7 -209249182#6 -209249182#5 -209249182#4 -209249182#3 -209249182#2 28671966 28671967#5 28671967#4 24299350#0"/>
    </person>
    <person id="15" depart="75.00">
        <walk edges="549740319#0 -549740318 -275577727 -134412201 382896066#1 357192810#0 679761824#0 679761824#1 45757804#0 -24246823#1 -24246823#0 -24246817#3 24246817#2 24246817#1 -24246817#0 136752765#2 45757802#0 45757803 74610049 24246761#6 24246761#5 -24246761#4 -24246761#3 -24246761#2 24246761#1 45408658#1 45408658#0 -4642281#1 -4642281#0 14593590 330113323 330113324#0 101950823#0 85418889#2 34322404#0 34322404#1 -8073960 8073953#1 -8073953#0 8073953#5 8073958 8073959#1 101999826 -4677570#1 101999829 117380599 101262445#0 101262445#1 -101262447#0 207228644#0 151427224#1 12083242#0 -12083242#1 12083242#2 -12083242#3 12083242#4 -151433716#0 151433716#1 12083245#0 -198909238 4853105#3 4853105#2 -4853105#1 4853105#0 4494926#15"/>
    </person>
    <person id="16" depart="80.00">
        <walk edges="202876590 -14103011 -251261265 225018117#1 225018117#0 251702969 -251671402#0 -251671402#1 -251671402#2 -202876582 206177929 -188742458#3 188742458#2 -188742458#1 -188742458#0 275573119#1 -275573119#0 188742459#1 -8515615#0 8515615#1 -8515615#2 -8515615#3 -8515615#4 8515615#5 -8515615#6 -8515615#7 -8515615#8 -5203964#0 -5203964#1 5203964#2 674556153#2 674556157 -674556156#0 674556156#1 -1007356696 1007356694#0 119802021#1 1007356692 1007356695 -1007356700#0 1007356700#1 -1007356698 -1007356697#0 1007356697#1 1007356699 275577741 -1007356703#0 902809731#0 902809731#4 80334215#1 -972900201#1 972900201#0 382886203#0 902809742#1 -229791620#1 1165428626#1 1165428626#2 1165428626#3 225631527#1 -5203959 -45838561 5203960#1 389584479#2 -389584479#1 24299945 -218601545#0 -218601545#1 218601545#2 -218601545#3 218601545#4 -24299956#3 941166206#8 941166206#7 941166206#6 941166206#5 941166206#4"/>
    </person>
    <person id="17" depart="85.00">
        <walk edges="1026656956 10302348#2 198962606#0 198962606#1 198962606#2 198962606#3 198962606#4 198962606#5 198962606#6 198962606#7 -10112177#0 -10112177#1 -10112177#2 10112177#3 -10112177#4 210111175#1 210111175#0 210111168#1 210110119#8 210110119#7 210111188 37571813#0 210110119#3 210110119#2 210110119#1 210110119#0 210110112#8 210110124 -37571808#1 210110101 210110112#4 210110112#3 210110112#2 210110121#0 210110121#1 10112177#10 -10112177#11 210112587 -4564987#5 -4564987#6 -4564987#7 4564987#8 4713443#1 -294060698 -4564986#0 -4564986#1 -586660339#0 8157354#0 -8157354#1 -8157354#2 -8157354#4 -4995729#3 4483821#9 4483821#8 4483821#4 4483821#3 4483821#2 -4483821#1 4483821#0 -203910670#22 203910670#21 -203910670#20 203910670#19 203910670#18 -203910670#17 203910670#14 203910670#10 -203910670#9 -203910670#8 203910670#7 -203910670#6 203910670#5 203910670#4 203910670#3 203910670#2 -203910670#1 -203910670#0 -4483407#5 4483407#4 -4483407#3 -4483407#2 -4483407#1 4483407#0 389376587#0 -739539654#0 739539654#1 385305539 42250357#0 -42250357#2 -42250357#3 -42250357#4 42250357#5 144176774#10 144176774#9 144176774#8 144176774#7 144176774#6 144176774#5 485744474#3 1127840645#0 204867806#1 204867807 431732045 -132741018#3 431732039#1 1111611019 -14592025#1 -133902374#0 -133902374#1 1111611018 -431732039#3 4614747 -132741010#0 -132741010#1 -4521173 -1097150694 -595322020#0 387594746#0 387594746#1 983092056 983092055 983092062#0 983092063#0 983092063#1 129952682#0 129952682#1 129952682#2 129952682#3 129952682#4 -429749785#0 4677563#0 4677567#0 4677567#1 8073954#4 8073954#5 8073954#0 -233537357 101999829 117380599 101262445#0 101262445#1 -101262447#0 207228644#0 151427224#1 12083242#0 -12083242#1 12083242#2 -101262451#0 209245919"/>
    </person>
    <person id="18" depart="90.00">
        <walk edges="620786329 24298872#2 955011001 -144595492#3 -939539193#0 -939539193#1 -198964340#3 -198964340#2 238007320#1 -198964340#0 -198964341#0 -198964341#1 939539196#2 939539196#1 -939539196#0 -939539195 -158734873#1 -158734873#0 -109022798#6 -109022798#5 -109022798#4 355559564 355559565 48509939#0 146910142 -109022798#1 -109022798#0 939539197 -939539198 -939539199#1 955010990 -4387521 955010991 -939539200#0 -939539201 849531222#0 132141897 858994330#0 858994330#1 856937234#4 856937234#0 858994326#0 377377453 856937237#2 856937237#3 856937236#0 856937236#1 856937236#2 856937236#3 856937213#1 856937232#1 856937232#0 849759708#7 849759708#8 849759708#9 856937228#0 856937228#1 856937228#2 856937211#0 856937211#1 856937227#1 856937227#2 856937209#0 856937209#1 856937224#1 856937169#0 -4301352#2 -4301352#1 -4301352#0 -939539207#1 -939539207#0 939539206#1 -939539206#0 -121942676#3 121942676#2 -121942676#1 -121942676#0 939539208 -939539209 -939539210#5 -939539210#4 -939539210#3 939539210#2 -939539210#1 939539210#0 4301351 121942677#0 121942677#1 -23183236 37801993 45361333 -45358929#0 45358929#1 -45358390#0 -45358390#1 45358444#0 45358444#1 325815777#1 4706944#1 4706944#0 198642283 25774329#0 45360506#0 -45360504#2 4904184#7 4904184#6 489409929#1 -489409929#0 -489409930 85145099#3 -4904150#1 4904150#2 45359120#4 45359120#3 -45359120#2 45359120#1 -4904139#0 -4904139#1 -4904139#2 -4904139#3 -4904139#4 -4904139#5 -4904139#6 -4470839#4 -4470839#3 -4470839#2 26303867#0 -26303866#1 -26303866#0 -20279774#1 -20279774#2 20279774#3 -20279772#1 -20279772#0 20279746#3 -26303872 732295445#0 -732295445#1 -732295445#2 732295445#3 -732295445#4 732295445#5 -732295445#6 732295445#7 -20279748 -20279749 20279843 202753580 -22731340#0 -22731339 202753584 -45494613#1 485899790#1 485691995#0 -24324664#0 -24324664#2 -24324664#3 -24324664#5 24324664#6 -24324664#9 -24324664#10 -24324664#12 24324664#13 24324664#14 -24324664#15 24324664#16 24324664#18 -24324664#19 24324664#20 -24324664#21 -24324664#22 -24324664#23 -24324664#24 24324664#25"/>
    </person>
    <person id="19" depart="95.00">