<?xml version="1.0" encoding="UTF-8"?>

<!-- generated on 2023-07-03 13:45:16.641674 by randomTrips.py UNKNOWN
<configuration>
    <net-file value="glasgow.net.xml"/>
    <output-trip-file value="ped_trips.xml"/>
    <route-file value="ped_routes.rou.xml"/>
    <pedestrians value="True"/>
    <end value="600"/>
    <period value="5.0"/>
</configuration>
-->

<routes xmlns:xsi="http://www.w3.org/2001/XMLSchema-instance" xsi:noNamespaceSchemaLocation="http://sumo.dlr.de/xsd/routes_file.xsd">
    <person id="0" depart="0.00">
        <walk from="27789025" to="-12083250#0"/>
    </person>
    <person id="1" depart="5.00">
        <walk from="-638361147" to="-45462133#2"/>
    </person>
    <person id="2" depart="10.00">
        <walk from="45362194" to="35067030#7"/>
    </person>
    <person id="3" depart="15.00">
        <walk from="8032814#5" to="-20279759#2"/>
    </person>
    <person id="4" depart="20.00">
        <walk from="119502495#1" to="-132703430"/>
    </person>
    <person id="5" depart="25.00">
        <walk from="-45102228#1" to="182565062#0"/>
    </person>
    <person id="6" depart="30.00">
        <walk from="-125022364#2" to="-387893899#0"/>
    </person>
    <person id="7" depart="35.00">
        <walk from="29376087#0" to="208046031#1"/>
    </person>
    <person id="8" depart="40.00">
        <walk from="-45358928#0" to="23863001#1"/>
    </person>
    <person id="9" depart="45.00">
        <walk from="555794500" to="-10305752"/>
    </person>
    <person id="10" depart="50.00">
        <walk from="54635951#5" to="389130867"/>
    </person>
    <person id="11" depart="55.00">
        <walk from="-890778747" to="-25600655#8"/>
    </person>
    <person id="12" depart="60.00">
        <walk from="896732746#0" to="-881797006"/>
    </person>
    <person id="13" depart="65.00">
        <walk from="-206594813#5" to="-20903494#5"/>
    </person>
    <person id="14" depart="70.00">
        <walk from="691669711#0" to="24299350#0"/>
    </person>
    <person id="15" depart="75.00">
        <walk from="549740319#0" to="4494926#15"/>
    </person>
    <person id="16" depart="80.00">
        <walk from="202876590" to="941166206#4"/>
    </person>
    <person id="17" depart="85.00">
        <walk from="1026656956" to="209245919"/>
    </person>
    <person id="18" depart="90.00">
        <walk from="620786329" to="24324664#25"/>
    </person>
    <person id="19" depart="95.00">
        <walk from="728037199" to="231253519#1"/>
    </person>
    <person id="20" depart="100.00">
        <walk from="41685383#3" to="-154356560#0"/>
    </person>
    <person id="21" depart="105.00">
        <walk from="-4568172#2" to="-723812731"/>
    </person>
    <person id="22" depart="110.00">
        <walk from="-19785216#1" to="-4592199#0"/>
    </person>
    <person id="23" depart="115.00">
        <walk from="-209250806#23" to="-672817316#0"/>
    </person>
    <person id="24" depart="120.00">
        <walk from="26770304#0" to="1005991912"/>
    </person>
    <person id="25" depart="125.00">
        <walk from="1019560837" to="-4381208#1"/>
    </person>
    <person id="26" depart="130.00">
        <walk from="-583487965" to="863635391#9"/>
    </person>
    <person id="27" depart="135.00">
        <walk from="289268924#0" to="24316776#2"/>
    </person>
    <person id="28" depart="140.00">
        <walk from="-30831967" to="4494909#6"/>
    </person>
    <person id="29" depart="145.00">
        <walk from="-28379992#9" to="1028103935#1"/>
    </person>
    <person id="30" depart="150.00">
        <walk from="977360525" to="28216075#1"/>
    </person>
    <person id="31" depart="155.00">
        <walk from="211927300#5" to="37386502#5"/>
    </person>
    <person id="32" depart="160.00">
        <walk from="688447861#0" to="48509912#0"/>
    </person>
    <person id="33" depart="165.00">
        <walk from="-4570469#4" to="-133659411"/>
    </person>
    <person id="34" depart="170.00">
        <walk from="-8029049#1" to="-585960767"/>
    </person>
    <person id="35" depart="175.00">
        <walk from="-438870170#1" to="877459897#2"/>
    </person>
    <person id="36" depart="180.00">
        <walk from="759783831" to="-80242019#0"/>
    </person>
    <person id="37" depart="185.00">
        <walk from="30832473#3" to="1100617063#1"/>
    </person>
    <person id="38" depart="190.00">
        <walk from="856937173#1" to="148001239#1"/>
    </person>
    <person id="39" depart="195.00">
        <walk from="-554903307#3" to="-48510943"/>
    </person>
    <person id="40" depart="200.00">
        <walk from="219354830#0" to="-544352980"/>
    </person>
    <person id="41" depart="205.00">
        <walk from="23706734#0" to="8104376#1"/>
    </person>
    <person id="42" depart="210.00">
        <walk from="1117886994#4" to="-4515791#3"/>
    </person>
    <person id="43" depart="215.00">
        <walk from="996531572" to="187907138"/>
    </person>
    <person id="44" depart="220.00">
        <walk from="-204735909#0" to="-156338508"/>
    </person>
    <person id="45" depart="225.00">
        <walk from="-225021540" to="25600655#0"/>
    </person>
    <person id="46" depart="230.00">
        <walk from="5002654#0" to="119502498#7"/>
    </person>
    <person id="47" depart="235.00">
        <walk from="-177278144#4" to="1041742760#0"/>
    </person>
    <person id="48" depart="240.00">
        <walk from="995277997#2" to="199094910"/>
    </person>
    <person id="49" depart="245.00">
        <walk from="939539178" to="728022773"/>
    </person>
    <person id="50" depart="250.00">
        <walk from="-1088633304#1" to="4393024#2"/>
    </person>
    <person id="51" depart="255.00">
        <walk from="366484054#1" to="203909320"/>
    </person>
    <person id="52" depart="260.00">
        <walk from="-58169414" to="28263588#1"/>
    </person>
    <person id="53" depart="265.00">
        <walk from="-22731438#2" to="132851842#2"/>
    </person>
    <person id="54" depart="270.00">
        <walk from="144799333#1" to="892162513#3"/>
    </person>
    <person id="55" depart="275.00">
        <walk from="757264930" to="-54635951#3"/>
    </person>
    <person id="56" depart="280.00">
        <walk from="178061718#3" to="-30880203#3"/>
    </person>
    <person id="57" depart="285.00">
        <walk from="84983117" to="744750265#0"/>
    </person>
    <person id="58" depart="290.00">
        <walk from="-736308367#0" to="27747850"/>
    </person>
    <person id="59" depart="295.00">
        <walk from="24316754#7" to="-250479796#12"/>
    </person>
    <person id="60" depart="300.00">
        <walk from="4681687#1" to="203955821#2"/>
    </person>
    <person id="61" depart="305.00">
        <walk from="485899789" to="199576396#0"/>
    </person>
    <person id="62" depart="310.00">
        <walk from="-1004113665" to="-82259973#3"/>
    </person>
    <person id="63" depart="315.00">
        <walk from="-11631566" to="859860597"/>
    </person>
    <person id="64" depart="320.00">
        <walk from="7665281#2" to="6537963"/>
    </person>
    <person id="65" depart="325.00">
        <walk from="-77664375#0" to="-168901498#0"/>
    </person>
    <person id="66" depart="330.00">
        <walk from="766478003#1" to="887825988"/>
    </person>
    <person id="67" depart="335.00">
        <walk from="-202753993#3" to="169761268"/>
    </person>
    <person id="68" depart="340.00">
        <walk from="-18099138#3" to="46727807#2"/>
    </person>
    <person id="69" depart="345.00">
        <walk from="4713113#0" to="-24275260#1"/>
    </person>
    <person id="70" depart="350.00">
        <walk from="162444471#1" to="20904323#5"/>
    </person>
    <person id="71" depart="355.00">
        <walk from="-554903308#9" to="750179286"/>
    </person>
    <person id="72" depart="360.00">
        <walk from="120152285#1" to="-4411903"/>
    </person>
    <person id="73" depart="365.00">
        <walk from="203938584" to="4494926#7"/>
    </person>
    <person id="74" depart="370.00">
        <walk from="-41228911#0" to="-7996950#2"/>
    </person>
    <person id="75" depart="375.00">
        <walk from="990621123" to="29376087#0"/>
    </person>
    <person id="76" depart="380.00">
        <walk from="133615953#1" to="191469295"/>
    </person>
    <person id="77" depart="385.00">
        <walk from="-23803879" to="-45487151"/>
    </person>
    <person id="78" depart="390.00">
        <walk from="-885760741" to="23844281#1"/>
    </person>
    <person id="79" depart="395.00">
        <walk from="-4570919#0" to="-452545580#5"/>
    </person>
    <person id="80" depart="400.00">
        <walk from="-183913453#1" to="26254691#0"/>
    </person>
    <person id="81" depart="405.00">
        <walk from="-4570467#3" to="82739043#16"/>
    </person>
    <person id="82" depart="410.00">
        <walk from="728002940" to="-182738987#2"/>
    </person>
    <person id="83" depart="415.00">
        <walk from="-4712905#10" to="317174842"/>
    </person>
    <person id="84" depart="420.00">
        <walk from="-4475301#6" to="-24298973#7"/>
    </person>
    <person id="85" depart="425.00">
        <walk from="863635366#23" to="226435372#2"/>
    </person>
    <person id="86" depart="430.00">
        <walk from="161598953#1" to="4904418"/>
    </person>
    <person id="87" depart="435.00">
        <walk from="55229949" to="-355559563#2"/>
    </person>
    <person id="88" depart="440.00">
        <walk from="-20903649#4" to="130877746#6"/>
    </person>
    <person id="89" depart="445.00">
        <walk from="120651995#0" to="156965886#2"/>
    </person>
    <person id="90" depart="450.00">
        <walk from="4494909#3" to="334936756#0"/>
    </person>
    <person id="91" depart="455.00">
        <walk from="9665293#6" to="-20904847"/>
    </person>
    <person id="92" depart="460.00">
        <walk from="11340438#2" to="-889975987#0"/>
    </person>
    <person id="93" depart="465.00">
        <walk from="728037197#1" to="-4865996#1"/>
    </person>
    <person id="94" depart="470.00">
        <walk from="-355557039#1" to="14103700#1"/>
    </person>
    <person id="95" depart="475.00">
        <walk from="119502494" to="-673518647"/>
    </person>
    <person id="96" depart="480.00">
        <walk from="-4904182#2" to="859078528"/>
    </person>
    <person id="97" depart="485.00">
        <walk from="134416008" to="728031221#0"/>
    </person>
    <person id="98" depart="490.00">
        <walk from="20904753#0" to="-158734875#15"/>
    </person>
    <person id="99" depart="495.00">
        <walk from="997592564" to="673518650"/>
    </person>
    <person id="100" depart="500.00">
        <walk from="93230129" to="859860514"/>
    </person>
    <person id="101" depart="505.00">
        <walk from="69978391#7" to="-28891834#3"/>
    </person>
    <person id="102" depart="510.00">
        <walk from="169761260" to="-4475215#0"/>
    </person>
    <person id="103" depart="515.00">
        <walk from="1119398524#0" to="-169980325#1"/>
    </person>
    <person id="104" depart="520.00">
        <walk from="102666705" to="9702763#1"/>
    </person>
    <person id="105" depart="525.00">
        <walk from="-554903310#7" to="4904411#1"/>
    </person>
    <person id="106" depart="530.00">
        <walk from="14593573#1" to="120152281#2"/>
    </person>
    <person id="107" depart="535.00">
        <walk from="896732750#1" to="991781893"/>
    </person>
    <person id="108" depart="540.00">
        <walk from="210110119#7" to="4381314#0"/>
    </person>
    <person id="109" depart="545.00">
        <walk from="-255416455#0" to="-729997872"/>
    </person>
    <person id="110" depart="550.00">
        <walk from="930330923" to="232065470"/>
    </person>
    <person id="111" depart="555.00">
        <walk from="205664347#0" to="45689587#0"/>
    </person>
    <person id="112" depart="560.00">
        <walk from="-167881426#2" to="236105146"/>
    </person>
    <person id="113" depart="565.00">
        <walk from="180018687#0" to="722491111"/>
    </person>
    <person id="114" depart="570.00">
        <walk from="-26198709#3" to="9048029#3"/>
    </person>
    <person id="115" depart="575.00">
        <walk from="-19797184#4" to="-32921827#2"/>
    </person>
    <person id="116" depart="580.00">
        <walk from="24247311#2" to="34106666#1"/>
    </person>
    <person id="117" depart="585.00">
        <walk from="-4648622#1" to="-23706734#3"/>
    </person>
    <person id="118" depart="590.00">
        <walk from="80249114#1" to="-48509928"/>
    </person>
    <person id="119" depart="595.00">
        <walk from="24246920#7" to="24324842#4"/>
    </person>
</routes>
