<?xml version="1.0" encoding="UTF-8"?>

<!-- generated on 2023-07-03 13:44:37.900211 by randomTrips.py UNKNOWN
<configuration>
    <net-file value="glasgow.net.xml"/>
    <output-trip-file value="trailer_trips.xml"/>
    <route-file value="trailer_routes.rou.xml"/>
    <trip-attributes value="color=&quot;223,179,180&quot; accel=&quot;0.5&quot;"/>
    <end value="600"/>
    <vehicle-class value="trailer"/>
    <period value="150.0"/>
</configuration>
-->

<!-- generated on 2023-07-03 13:44:37 by Eclipse SUMO duarouter Version v1_16_0+3763-8049632e6ba
<configuration xmlns:xsi="http://www.w3.org/2001/XMLSchema-instance" xsi:noNamespaceSchemaLocation="http://sumo.dlr.de/xsd/duarouterConfiguration.xsd">

    <input>
        <net-file value="glasgow.net.xml"/>
        <route-files value="trailer_trips.xml"/>
    </input>

    <output>
        <output-file value="trailer_routes.rou.xml"/>
        <alternatives-output value="NUL"/>
    </output>

    <time>
        <begin value="0"/>
        <end value="600"/>
    </time>

    <report>
        <no-warnings value="true"/>
        <ignore-errors value="true"/>
        <no-step-log value="true"/>
    </report>

</configuration>
-->

<routes xmlns:xsi="http://www.w3.org/2001/XMLSchema-instance" xsi:noNamespaceSchemaLocation="http://sumo.dlr.de/xsd/routes_file.xsd">
    <vType id="trailer" vClass="trailer" color="223,179,180" accel="0.5"/>
    <vehicle id="0" type="trailer" depart="0.00">
        <route edges="24317629#0 -24317629#0 -24317627 -209248562#4 -209248562#3 -209248562#0 -45565399#2 -45565399#1 -45565399#0 -28216143#2 -28216143#0 -28216142 -24299417#14 -24299417#13 -24299417#12 24299579#0 24299579#1 24299579#2 1103797411 1103797413 1103797412 -209250806#29 -209250806#28 -209250806#27 -209250806#26 -209250806#25 -209250806#24 -209250806#23 -209250806#22 -209250806#21 -209250806#20 -209250806#18 -747825732#3 -747825732#2 -747825732#1 -747825732#0 -4854053#8 -4854053#7 -4854053#5 -4854053#4 -4854053#1 -4854053#0 939539208 121942676#0 121942676#1 121942676#2 121942676#3 939539206#0 939539206#1 -143753233 -4411864 -4411863#4 -4411863#2 -143755503#13 -143755503#11 -143755503#10 -143755503#8 -143755503#7 -143755503#6 -143755503#4 -143755503#3 -143755503#2 -143755503#1 -143755503#0"/>
    </vehicle>
    <vehicle id="1" type="trailer" depart="150.00">
        <route edges="-4476040#6 4476040#6 4476040#7 4476040#8 4476040#9 4476040#10 9503861#0 9503861#1 -4677742#9 -4677742#8 -4677742#6 -4677742#5 -4677742#4 -4677742#3 -4677742#2 -4677742#1 -202753992#14 -202753992#13 -202753992#12 -202753992#11 -202753992#10 -202753992#9 -202753992#8 -202753992#7 -202753992#6 -202753992#5 -202753992#4 -202753992#3 -202753992#2 -202753992#1 -202753992#0 4628071#0 4628071#1 4628071#2 4628071#4 202753993#0 202753993#1 202753993#2 202753993#3 202753993#4 202753993#5 1097150696#0 1097150695#1 1097150695#2 156536760#1 156536760#2 1103822694 4839480 143784299 4839475 4470836 4470837 3469492#0 3469492#1 4345003 23814108 65001620#0 65001620#1 384189461 4799015 384188710 4799544 45360887#0 45360887#1 4799025 4799019 4799021#0 4799021#1 939539211 939539210#0 939539210#1 939539210#2 939539210#3 939539210#4 939539210#5 939539209 939539208 121942676#0 121942676#1 121942676#2 121942676#3 939539206#0 939539206#1 939539207#0 939539207#1 4301352#0 4301352#1 4301352#2 939539205#0 939539205#1 939539205#2 939539205#3 939539205#4 939539203#0 939539203#1 939539202 4295451#0 4295451#1 4295451#2 4295451#3 4295451#4 4295451#5 939539204 598321348#0 939539201 939539200#0 939539199#0 939539199#1 939539198 939539197 109022798#0 109022798#1 109022798#2 109022798#4 109022798#5 109022798#6 8032808#0 8032808#2 8032808#3 8032808#4 8032808#5 8032808#6 8032810#4 8032810#0 8032811 225790710#0 225790710#1 8032814#0 8032814#1 8032814#3 8032814#4 8032814#5 144597759#3 144597759#4 -144597771#8 -144597771#7 -144597771#6 -144597771#5 -144597771#3 -144597771#0 -35165195"/>
    </vehicle>
    <vehicle id="2" type="trailer" depart="300.00">
        <route edges="382895557 -204867857#6 -204867857#5 -204867857#4 -204867857#3 -204867857#2 -204867857#1 -204867857#0 70228094#0 70228094#3 70228094#4 204867808#1 4995800#0 4995800#1 4995800#2 4995800#3 -4995798#8 -4995798#7 -4995798#6 -4995798#5 -4995798#4 -4995798#2 -4995798#1 -4995798#0 144176778#4 144176778#5 144176778#6 144176778#7 972410213 4713080 972410214 412175191#1 412175191#2 164090947#0 4803254 4803257#0 4803257#1 4803260 368520680 69067213 4803258 4296031#5 4296031#6 4296031#7 4296031#9 4296031#10 235044113#0 235044113#1 235044113#2 235044113#3 235044113#4 15534262#0 15534262#1 -354340064#12 -354340064#11 -354340064#10 -354340064#9 -354340064#8 -354340064#7 -354340064#6 -354340064#5 -354340064#2 -354340064#1 -354340064#0 -4764302#2 -4764302#0 -4340835#3 -4340835#2 -4340835#1 -421880890 -421880891 -4340834 -177461766#4 -177461766#3 -177461766#2 -177461766#1 -177461759#2 4329331#2 29128149#0"/>
    </vehicle>
    <vehicle id="3" type="trailer" depart="450.00">
        <route edges="544352990 389583132#0 389583132#1 24247209#0 24247209#1 545578004 545375954#3 545375954#4 545375954#0 545375954#1 -229791620#2 -229791620#1 382886186#0 382886186#1 382892934#0 382892934#1 382886582#0 382886582#1 -225631527#2 -225631527#1 -5203959 -45838561 -5203960#1 -389584479#2 -389584479#1 -389584479#0 389584478#0 158366451#1 158366451#2 942627347#0 942627347#1 888706268 156831894#1 942627350 158366453#0 158366453#1 158366453#2 263438817#0 263438817#1 263438817#2 263438817#3 263438817#4 263438817#5 263438817#6 263438817#7 -120316916 -24299866#24 -24299866#23 -24299866#22 -24299866#21 -24299866#20 -24299866#19 -24299866#18 -24299866#16 -24299866#15 -24299866#14 -24299866#13 -24299866#12 -24299866#11 -24299866#9 -24299866#8 -24299866#7 -24299866#6 -24299866#5 -24299866#3 -24299866#2 -24299866#1 1102403762 4548426#0 4548426#1 4548426#2 4548426#3 202754595#0 202754595#1 202754595#2 202754595#3 202754596#1 -242773832#7 -242773832#6 -242773832#5 -20903307#3 20903342#0 20903342#1 20903342#2 20903342#3 20903342#4 -20903342#4 -20903342#3"/>
    </vehicle>
</routes>
