<?xml version="1.0" encoding="UTF-8"?>

<!-- generated on 2023-07-03 14:19:57.554969 by randomTrips.py v1_18_0+0000-03ecfdea036
<configuration>
    <net-file value="glasgow.net.xml"/>
    <output-trip-file value="trailer_trips.xml"/>
    <route-file value="trailer_routes.rou.xml"/>
    <trip-attributes value="color=&quot;223,179,180&quot; accel=&quot;0.5&quot;"/>
    <end value="600"/>
    <vehicle-class value="trailer"/>
    <period value="150.0"/>
</configuration>
-->

<!-- generated on 2023-07-03 14:19:56 by Eclipse SUMO duarouter Version 1.18.0
<configuration xmlns:xsi="http://www.w3.org/2001/XMLSchema-instance" xsi:noNamespaceSchemaLocation="http://sumo.dlr.de/xsd/duarouterConfiguration.xsd">

    <input>
        <net-file value="glasgow.net.xml"/>
        <route-files value="trailer_trips.xml"/>
    </input>

    <output>
        <output-file value="trailer_routes.rou.xml"/>
        <alternatives-output value="NUL"/>
    </output>

    <time>
        <begin value="0"/>
        <end value="600"/>
    </time>

    <report>
        <no-warnings value="true"/>
        <ignore-errors value="true"/>
        <no-step-log value="true"/>
    </report>

</configuration>
-->

<routes xmlns:xsi="http://www.w3.org/2001/XMLSchema-instance" xsi:noNamespaceSchemaLocation="http://sumo.dlr.de/xsd/routes_file.xsd">
    <vType id="trailer" vClass="trailer" color="223,179,180" accel="0.5"/>
    <vehicle id="1" type="trailer" depart="150.00">
        <route edges="-4570535 4552649#7 4552649#8 -730099771#2 -730099771#1 -730099771#0 -4570538 118186240 196934180#0 4570588#2 4570588#3 4570588#4 4570588#5 24324075 368516494 147049020#0 24324115#0 24324115#1 16682270#1 16682270#2 203405678 152135170 397336690 317578231 60310293 23049213 3469484 339379778 490760601 490761767 348214164 348214165 490760602 404191022 404191023 490760639 499958246 571037596 571037598 457084756 501770283 484833312 490761768 457084758 457084759 421991088 489042927 484833292 37852069 37852068 37852067 37852072 484787458 484787459 401484481 56699865 56699863 35066592 22889428 143784660 143784661 22889403 22889404 23745004 39899874 39899876 23745003 22901118 22901120 256751475 4519095 160682189 256751477 136457071 136457073 69044619 69044639 4519096 4006078 113143233 113143237 258978979 1074799447 27001989 143888219 6181638 6181642 6181567 164857946 333493187 258978977 241161449#0 241161449#1 113827394#0 113827394#1 261302386#0 261302386#1 261302386#2 23066335 857623284 294260559 1082761838 99205503 191158304#0 191158304#1 1082761837 3708884#0 3708884#1 41421727 41421725 29325756 4252309 46158630 232315186 4252306#0 4252306#1 4252305 233580775 233580774 4252303 4252302 4252301#0 4252301#1 4892130 4252299#0 4252299#1 250578973#0 250578973#1 23126671 23126672 4516433 370021203 370021205 370021204#0 370021204#1 370021202 840089452#0 840089452#1 840089452#2 840089453 1185360314 4526643 4604619#0 4604619#1 4604619#2 4604626#0 4604626#1 5001411 5001412 5197318 622459373 5197319 2956345 23158059 23268778 23186963 368003201 -187007954#1 -187007954#0 -227758448 -227758449 -130995873 -130995875 -66569406 967346763 972211314 967346764 66569426 154795862#1 434919036#0 817845824 153681856 704223635#1 292166463 704223634 241396409#0 241396409#1 292128479 4684193 266896475#1 266896477#0 -301944112 -4871772 -33463744 -301941503 -33463745 434919033 4871773#0 3468 29172857 467563935 467563936 23186618#0 23186618#1 132911044#0 132911044#1 467563938 467563939 467563940 -132911043 -467564194 -467564195 -467564196 -23210269#1 -292128480#0 -4084026#1 -39896243#2 -39896243#1 -32395289#1 826996107#1 4084023#0 4084023#1 4084023#2 69403899#0 69403899#1 2956325#0 2956325#1 2956325#2 42178342#0 42178342#1 233032038#0 233032038#2 4685547 224520946 332289590#0 332289590#2 4887695 991786184 4019080 4019100 1167357078 1085797267 1085797268 958630574 4936473#0 4936473#1 -41123269#1 -41123269#0 -531351877 -479898679 19754359#0 19754359#1 374100499 68607606 68607607 239083447 239083448 239083450 239083449 494497517 2953985#0 2953985#1 354318315#0 354318315#1 354318314 399257528 399257526#0 399257526#1 228000960#0 228000960#1 399257534 399257530 392472646 316943218#0 2953986#0 2953986#1 2953986#2 329111756 329111757 531559961#0 531559961#1 43737897 4767418 231414111 934820975#0 934820975#1 934820973#0 934820973#1 134650327 934820974#0 934820974#1 934820976#0 934820976#1 2954007#0 2954007#1 66111753#0 66111753#1 482837515#0 482837515#1 482837514 402963645 415827527 337023860#0 337023860#1 66111779 1104884630 4755816 2954012#0 2954012#1 32476588 2954016 52664503 52664500 52664645 532805148 52664538 2954019 25023468 38764529 38764530 2954020 27157885 27157891 66112551 245052042 245052049 273373976 32670547 223522722 223522720 32670544 2955991 41419954 44316691 314199216 734217058 3981449 4642920 32668031 77526981 77526984 77527669 123079570 35263159 77519321 77519322 93474749 93474759 4891231#1 77531018 77531019 77531020 4643367#1 4927041 503055878 503055876 77531021 96808899 96808812 77531068 244592083 244592082 37343337 124988774 124988777 229267262 4927042#2 4927042#0 229267264 -229267261 -124988775 -124988773 -676557315 -676557316 -676557318 -124988776 676371224 676371219 676371222 547761374 -127689642 -401779491 -401779424 -134992871 -401779486 -401779475 -251779794 -77532014 -401779456 -401779432 -401779477 -401779430 -39467983 -401779468 251749640 251749635 251749641 251749638 -77532338 77532337 547761366 223433773 676600492 676600497 331813162 -401779461 -401779470 -401779443 -401779480 -251712237 -401779450 -401779482 -401779472 -251681745 -229209353 -229209354 -251683324 -401779465 -401779436 -401779484 -401779488 -401779453 -401779446 -77603776 -401779427 -401779493 -77603808 -401779439 -401779496 -1053081117 -1053081118 -251711600 -143764508 -143764507 -251712880 -401779458 -251712881 251712879 206419545 547761363 993362867 993362874 993362866 1125482340 4927045 112187674 979572127 979572126 26172272 26172273 199881208 23045689 199881207 23045691 36949400 36949401 979570062 43581017 1031071491 990490960 1100562379 990490961 990586171 1031071490 4701199 32612713 401783225 688187706 688187699 688187700 688192839 223429084 223429078 979569626 325045765 32986438#1 223429080 401783215 401783224 401783227 401783218 401783220 32985723 199859162 401783214 401783222 401783226 401783223 199859161 401783219 401783216 67915365 199829822 199829823 401783217 239827001 401783221 207503497 239826999 324053257 -152015865 30821035 465710892 465709254 28979723 465709250 465709251 1098333650 1104903482 1096855251 239314058 239314060 -401790580 -401790583 239559862 239559866 401790578 401790581 239559865 145299560 145299559 -77604318 -1077902772 77604460 683981207 -30820980 -683979602 -683979606 -683980809 -1100569841 -1100569842 -683995003 -683995002 -28956307 23944846 37602628 37602629 30824131 27546168 27558618 683242416 683243888 683243889 683242415 27546082 683362596 683362597 199103998 199104012 683376587 683376588 199104003 199104007 873108610 1104898875 706809466 30823909 683378664 683378665 23944847 32768031 32768033 239754206 683386025 30823830 683386026 239754205 683397059 683397060 239755994 683397058 683397061 239755996 683397380 -683397377 -683400703 -683400702 -239859370 -683400701 239859368 239859366 683406368 683406367 239859365 683407491 683407492 683407488 683407486 683407485 683407484 239865324 239865326 338125544 338126163 239865327 239865329 199551085 683410804 401747361 401747362 239865330 199551082 683411340 683411339 683411338 683411337 683418777 683418775 239883852 683418772 683418773 683421949 239883856 239883847 239883851 781597264 781597263 239883854 199551083 199551086 239883849 781597262 781597261 -781597261 -781597262 -239883849 -199551086 -199551083 -239883854 -781597263 -781597264 -239883851 -239883847 -239883856 -683421949 -683418773 -683418772 -239883852 -683418775 -683418777 -683411337 -683411338 -683411339 -683411340 -199551082 -239865330 -401747362 -401747361"/>
    </vehicle>
    <vehicle id="2" type="trailer" depart="300.00">
        <route edges="385312769 -385312769 5203968#4 5203968#0 5203968#1 5203968#2 7981171#0 7981171#1 7981171#2 -203910670#10 -203910670#9 -203910670#8 -203910670#7 -203910670#6 -203910670#5 -203910670#4 -203910670#3 -203910670#2 -203910670#1 -203910670#0 -4483407#5 -4483407#4 -4483407#3 -4483407#2 -4483407#1 -4483407#0 4806323#1 4806323#2 4806323#4 4806323#6 4806323#8 144176778#0 144176778#1 144176778#2 144176778#3 4995798#0 4995798#1 4995798#2 4995798#4 4995798#5 4995798#6 4995798#7 4995798#8 204867806#1 204867807 -431732045 431732039#0 431732039#1 431732039#2 431732039#3 4614747 132741010#0 132741010#1 4521173 1097150694 595322020#0 595322020#1 595322020#2 595322020#3 83607382#0 83607382#1 83607382#2 83607382#3 83607382#5 83607382#6 83607382#8 4741291#0 4494913#0 4494913#1 4494913#2 4494913#3 4494913#4 4494913#5 4494913#6 4494913#7 4494913#8 4494913#9 4494913#10 4494913#11 4494913#12 685023881#0 685023881#1 685023881#3 4475203#0 1097150695#1 1097150695#2 156536760#1 156536760#2 1103822694 4839480 143784299 4839474#0 4839474#1 170560357 891957416 202753581#0 202753581#1 891957415#0 891957415#1 250478231#0 250478231#1 218310239#0 -145348391#7 -145348391#6 -145348391#5 -145348391#4 -145348391#2 -145348391#1 -145348391#0 -31255614 -31255613#1 -31255613#0 -118794905 -31255612 -209281127 -145348390#6 -145348390#5 -145348390#4 -145348390#3 -145348390#2 -145348390#1 -145348390#0 -45409540#5 -45409540#4 -45409540#3 -45409540#2 -45409540#1 -45409540#0 -250475788#5 -250475788#4 -250475788#3 -250475788#2 -250475788#1 -250475788#0 -45409539 30832517#0 30832517#1 30832517#2 30832517#3 209245894#0 209245894#1 209245894#2 209245894#3 209245894#4 29076486#0 29076486#1 29076486#2 29076486#3 29076486#4 29076486#5 29076486#6 29076486#7 209281893 209281892#0 209281892#1 209281892#2 209281886 249287055#0 249287055#1 249287051#0 249287051#1 30832271 -30832283#1 -30832283#0 -24232511#4 -24232511#3 -24232511#2 -24232511#1 -24232511#0 30726509#0 30726861#0 30726861#1 30726861#2 30726861#3 30726861#4 30726861#5 30726896#0 30726907"/>
    </vehicle>
    <vehicle id="3" type="trailer" depart="450.00">
        <route edges="585960770#1 -24247609 24247608#1 585960771#1 225017488#0 225017488#1 225017488#2 225017488#3 225017488#4 225017488#5 5203964#0 5203964#1 5203964#2 5203964#3 5203966 5203965#0 5203965#1 275114479#0 275114479#2 275114479#3 275114479#4 80334215#0 80334215#1 -972900201#1 -972900201#0 382886203#0 382886203#1 382886186#0 382886186#1 382892934#0 382892934#1 382886582#0 382886582#1 -225631527#2 -225631527#1 -5203959 -45838561 -5203960#1 -389584479#2 -389584479#1 -389584479#0 389584478#0 158366451#1 158366451#2 942627347#0 942627347#1 888706268 156831894#1 942627350 158366453#0 158366453#1 158366453#2 263438817#0 263438817#1 263438817#2 263438817#3 263438817#4 263438817#5 263438817#6 263438817#7 -120316916 -24299866#24 -24299866#23 -24299866#22 -24299866#21 -24299866#20 -24299866#19 -24299866#18 -24299866#16 -24299866#15 -24299866#14 -24299866#13 -24299866#12 -24299866#11 -24299866#9 -24299866#8 -24299866#7 -24299866#6 -24299866#5 -24299866#3 -24299866#2 -24299866#1 120316914#0 120316914#1 120316914#2 120316914#3 6439043#0 6439043#1 6439043#2 6439043#3 6439043#4 6439043#5 6439043#6 20903773#1 20903773#2 20903773#3 20903773#4 20904323#0 20904323#1 -20904356#4 -20904356#3 -20904356#2 -20904356#1 -20904356#0"/>
    </vehicle>
</routes>
