<?xml version="1.0" encoding="UTF-8"?>

<!-- generated on 2023-07-03 13:44:22.253957 by randomTrips.py UNKNOWN
<configuration>
    <net-file value="glasgow.net.xml"/>
    <output-trip-file value="truck_trips.xml"/>
    <route-file value="truck_routes.rou.xml"/>
    <trip-attributes value="color=&quot;179,223,183&quot;"/>
    <end value="600"/>
    <vehicle-class value="truck"/>
    <period value="15.0"/>
</configuration>
-->

<!-- generated on 2023-07-03 13:44:21 by Eclipse SUMO duarouter Version v1_16_0+3763-8049632e6ba
<configuration xmlns:xsi="http://www.w3.org/2001/XMLSchema-instance" xsi:noNamespaceSchemaLocation="http://sumo.dlr.de/xsd/duarouterConfiguration.xsd">

    <input>
        <net-file value="glasgow.net.xml"/>
        <route-files value="truck_trips.xml"/>
    </input>

    <output>
        <output-file value="truck_routes.rou.xml"/>
        <alternatives-output value="NUL"/>
    </output>

    <time>
        <begin value="0"/>
        <end value="600"/>
    </time>

    <report>
        <no-warnings value="true"/>
        <ignore-errors value="true"/>
        <no-step-log value="true"/>
    </report>

</configuration>
-->

<routes xmlns:xsi="http://www.w3.org/2001/XMLSchema-instance" xsi:noNamespaceSchemaLocation="http://sumo.dlr.de/xsd/routes_file.xsd">
    <vType id="truck" vClass="truck" color="179,223,183"/>
    <vehicle id="0" type="truck" depart="0.00">
        <route edges="24317629#0 -24317629#0 -24317627 -209248562#4 -209248562#3 -209248562#0 -45565399#2 -45565399#1 -45565399#0 -28216143#2 -28216143#0 -28216142 -24299417#14 -24299417#13 -24299417#12 24299579#0 24299579#1 24299579#2 1103797411 1103797413 1103797412 -209250806#29 -209250806#28 -209250806#27 -209250806#26 -209250806#25 -209250806#24 -209250806#23 -209250806#22 -209250806#21 -209250806#20 -209250806#18 -747825732#3 -747825732#2 -747825732#1 -747825732#0 -4854053#8 -4854053#7 -4854053#5 -4854053#4 -4854053#1 -4854053#0 939539208 121942676#0 121942676#1 121942676#2 121942676#3 939539206#0 939539206#1 -143753233 -4411864 -4411863#4 -4411863#2 -143755503#13 -143755503#11 -143755503#10 -143755503#8 -143755503#7 -143755503#6 -143755503#4 -143755503#3 -143755503#2 -143755503#1 -143755503#0"/>
    </vehicle>
    <vehicle id="1" type="truck" depart="15.00">
        <route edges="-4476040#6 4476040#6 4476040#7 4476040#8 4476040#9 4476040#10 9503861#0 9503861#1 -4677742#9 -4677742#8 -4677742#6 -4677742#5 -4677742#4 -4677742#3 -4677742#2 -4677742#1 -202753992#14 -202753992#13 -202753992#12 -202753992#11 -202753992#10 -202753992#9 -202753992#8 -202753992#7 -202753992#6 -202753992#5 -202753992#4 -202753992#3 -202753992#2 -202753992#1 -202753992#0 4628071#0 4628071#1 4628071#2 4628071#4 202753993#0 202753993#1 202753993#2 202753993#3 202753993#4 202753993#5 1097150696#0 1097150695#1 1097150695#2 156536760#1 156536760#2 1103822694 4839480 143784299 4839475 4470836 4470837 3469492#0 3469492#1 4345003 23814108 65001620#0 65001620#1 384189461 4799015 384188710 4799544 45360887#0 45360887#1 4799025 4799019 4799021#0 4799021#1 939539211 939539210#0 939539210#1 939539210#2 939539210#3 939539210#4 939539210#5 939539209 939539208 121942676#0 121942676#1 121942676#2 121942676#3 939539206#0 939539206#1 939539207#0 939539207#1 4301352#0 4301352#1 4301352#2 939539205#0 939539205#1 939539205#2 939539205#3 939539205#4 939539203#0 939539203#1 939539202 4295451#0 4295451#1 4295451#2 4295451#3 4295451#4 4295451#5 939539204 598321348#0 939539201 939539200#0 939539199#0 939539199#1 939539198 939539197 109022798#0 109022798#1 109022798#2 109022798#4 109022798#5 109022798#6 8032808#0 8032808#2 8032808#3 8032808#4 8032808#5 8032808#6 8032810#4 8032810#0 8032811 225790710#0 225790710#1 8032814#0 8032814#1 8032814#3 8032814#4 8032814#5 144597759#3 144597759#4 -144597771#8 -144597771#7 -144597771#6 -144597771#5 -144597771#3 -144597771#0 -35165195"/>
    </vehicle>
    <vehicle id="2" type="truck" depart="30.00">
        <route edges="382895557 -204867857#6 -204867857#5 -204867857#4 -204867857#3 -204867857#2 -204867857#1 -204867857#0 70228094#0 70228094#3 70228094#4 204867808#1 4995800#0 4995800#1 4995800#2 4995800#3 -4995798#8 -4995798#7 -4995798#6 -4995798#5 -4995798#4 -4995798#2 -4995798#1 -4995798#0 144176778#4 144176778#5 144176778#6 144176778#7 972410213 4713080 972410214 412175191#1 412175191#2 164090947#0 4803254 4803257#0 4803257#1 4803260 368520680 69067213 4803258 4296031#5 4296031#6 4296031#7 4296031#9 4296031#10 235044113#0 235044113#1 235044113#2 235044113#3 235044113#4 15534262#0 15534262#1 -354340064#12 -354340064#11 -354340064#10 -354340064#9 -354340064#8 -354340064#7 -354340064#6 -354340064#5 -354340064#2 -354340064#1 -354340064#0 -4764302#2 -4764302#0 -4340835#3 -4340835#2 -4340835#1 -421880890 -421880891 -4340834 -177461766#4 -177461766#3 -177461766#2 -177461766#1 -177461759#2 4329331#2 29128149#0"/>
    </vehicle>
    <vehicle id="3" type="truck" depart="45.00">
        <route edges="544352990 389583132#0 389583132#1 24247209#0 24247209#1 545578004 545375954#3 545375954#4 545375954#0 545375954#1 -229791620#2 -229791620#1 382886186#0 382886186#1 382892934#0 382892934#1 382886582#0 382886582#1 -225631527#2 -225631527#1 -5203959 -45838561 -5203960#1 -389584479#2 -389584479#1 -389584479#0 389584478#0 158366451#1 158366451#2 942627347#0 942627347#1 888706268 156831894#1 942627350 158366453#0 158366453#1 158366453#2 263438817#0 263438817#1 263438817#2 263438817#3 263438817#4 263438817#5 263438817#6 263438817#7 -120316916 -24299866#24 -24299866#23 -24299866#22 -24299866#21 -24299866#20 -24299866#19 -24299866#18 -24299866#16 -24299866#15 -24299866#14 -24299866#13 -24299866#12 -24299866#11 -24299866#9 -24299866#8 -24299866#7 -24299866#6 -24299866#5 -24299866#3 -24299866#2 -24299866#1 1102403762 4548426#0 4548426#1 4548426#2 4548426#3 202754595#0 202754595#1 202754595#2 202754595#3 202754596#1 -242773832#7 -242773832#6 -242773832#5 -20903307#3 20903342#0 20903342#1 20903342#2 20903342#3 20903342#4 -20903342#4 -20903342#3"/>
    </vehicle>
    <vehicle id="4" type="truck" depart="60.00">
        <route edges="-940159536#0 178065170 45409539 250475788#0 250475788#1 250475788#2 250475788#3 250475788#4 250475788#5 45409540#0 45409540#1 45409540#2 45409540#3 45409540#4 45409540#5 145348390#0 145348390#1 145348390#2 145348390#3 145348390#4 145348390#5 145348390#6 209281127 31255612 118794905 31255613#0 31255613#1 31255614 145348391#0 145348391#1 145348391#2 145348391#4 145348391#5 145348391#6 145348391#7 250475811#0 250475811#1 250475811#2 250475811#3 250475811#4 250478232#1 202753587 170560360 417577245 22731341#0 22731341#1 55668654 384218092#0 384218092#1 55668655#0 55668655#1 -706496749#2 -706496749#1 -706496749#0 239811653 164500948#0 -156536760#2 -156536760#1 -1097150695#2 -1097150695#1 -4475203#0 -685023881#3 -685023881#1 -685023881#0 -4494913#12 -4494913#11 -4494913#10 -4494913#9 -4494913#8 -4494913#7 -4494913#6 -4494913#5 -4494913#4 -4494913#3 -4494913#2 -4494913#1 -4494913#0 4741290 -83607382#8 -83607382#6 -83607382#5 -83607382#3 -83607382#2 -83607382#1 -83607382#0 -595322020#3 -595322020#2 -595322020#1 -595322020#0 -1097150694 -4521173 -132741010#1 -132741010#0 132741009 431740498#1 431740498#2 431740498#3 431740498#4 -14593585#2 -14593585#1"/>
    </vehicle>
    <vehicle id="5" type="truck" depart="75.00">
        <route edges="-30879719#1 -30879719#0 209281126#1 209281126#2 209281126#3 209281126#4 -202753588#5 -202753588#4 -202753588#3 -202753588#2 -202753588#1 -202753588#0 30880031#1 30880088 30880087 6182168 166125740 30879991#0 30879991#1 30879991#2 -951318445 -369581050#5 -369581050#4 -369581050#3 -369581050#2 -369581050#1 -369581050#0 -369581049 -206594812#9 -206594812#8 -206594812#6 -206594812#4 -206594812#3 -206594812#2 -206594812#1 -206594812#0 24317879 45074755#0 -24317964#4 -24317964#3 -24317964#2 -24317964#1 -24317964#0 -45565400#4 -45565400#3 -45565400#2 -45565400#1 -45565400#0 -209248562#4 -209248562#3 -209248562#0 -45565399#2 -45565399#1 -45565399#0 -28216143#2 -28216143#0 -28216142 -24299417#14 -24299417#13 -24299417#12 24299579#0 24299579#1 24299579#2 1103797411 -6182158#15 19785210#0"/>
    </vehicle>
    <vehicle id="6" type="truck" depart="90.00">
        <route edges="-143755503#6 -143755503#4 -143755503#3 -143755503#2 -143755503#1 -143755503#0 -4764318#3 -4764318#2 -4764318#1 -4764318#0 4764319 380100956 226152921#1 226150745 152135172 102730103 4345002#0 4345002#1 3469493 579403732 579403734 4470835 1801 1126700706 124452933 3469486 216530233 478853690 478853371 55668656#1 891957416 202753581#0 202753581#1 891957415#0 891957415#1 250478231#0 250478231#1 218310239#0 -145348391#7 -145348391#6 -145348391#5 -145348391#4 -145348391#2 -145348391#1 -145348391#0 -31255614 -31255613#1 -31255613#0 -118794905 -31255612 -209281127 -145348390#6 -145348390#5 -145348390#4 -145348390#3 -145348390#2 -145348390#1 -145348390#0 -45409540#5 -45409540#4 -45409540#3 -45409540#2 -45409540#1 -45409540#0 30878902#0 30878902#1 30878902#3 30878902#4 30878902#5 30878913 30878942#0 30878942#2 -30878942#2"/>
    </vehicle>
    <vehicle id="7" type="truck" depart="105.00">
        <route edges="24324842#3 24324842#4 24232504#6 24232504#7 24232504#8 24232504#9 -196221556 -4570591 -66975015 239814052#0 239814052#1 239814052#2 239814052#3 239814052#4 239814052#5 239814052#6 239814052#7 239814052#8 239814052#9 239814052#10 239814052#11 239814052#12 239814052#13 598905014#1 20898858#1 20898858#2 20898858#3 -4570549#3 -4570549#2 -4570549#1 -4570549#0 -4570548#2 -4570548#1 -4570548#0 -242773833#3 -242773833#2 -242773833#1 -242773833#0 20901362#0 -20907297#4 -20907297#2 20907297#2"/>
    </vehicle>
    <vehicle id="8" type="truck" depart="120.00">
        <route edges="-30880116#0 202753588#3 202753588#4 202753588#5 31255483#0 31255483#1 31255483#3 31255483#4 229244583#0 229244583#1 229244583#2 30880047#0 30880047#1 1100617061 143734635#0 143734635#1 143734635#2 143734635#3 143734635#4 143734635#5 143734635#6 202753583#0 202753583#1 250475811#0 250475811#1 250475811#2 250475811#3 250475811#4 250478232#1 202753587 170560360 417577245 22731341#0 22731341#1 55668654 384218092#0 384218092#1 55668655#0 55668655#1 -706496749#2 -706496749#1 -706496749#0 239811653 164500948#0 -156536760#2 -156536760#1 -1097150695#2 -1097150695#1 -4475203#0 -685023881#3 -685023881#1 -685023881#0 -4494913#12 -4494913#11 -4494913#10 -4494913#9 -4494913#8 -4494913#7 -4494913#6 -4494913#5 -4494913#4 -4494913#3 -4494913#2 -4494913#1 -4494913#0 4741290 -83607382#8 -83607382#6 -83607382#5 -83607382#3 -83607382#2 -83607382#1 -83607382#0 -595322020#3 -595322020#2 -595322020#1 -595322020#0 -1097150694 -4521173 -132741010#1 -132741010#0 132741009 431740498#1 431740498#2 431740498#3 431740498#4 431740498#5 431740498#7 24246761#1 24246761#2 24246761#3 24246798"/>
    </vehicle>
    <vehicle id="9" type="truck" depart="135.00">
        <route edges="45565399#1 45565399#2 209248562#0 209248562#3 209248562#4 45565400#0 45565400#1 45565400#2 45565400#3 45565400#4 -4470831#2 -4470831#1 -4470831#0 -199097890#1 -199097890#0 -45074753#9 -45074753#8 -45074753#7 -45074753#6 -45074753#5 -45074753#4 -45074753#3 -45074753#2 -45074753#1 -45074753#0 -4470838#3 -4470838#2 -4470838#1 -4470838#0 45568798#0 45568798#1 45568798#2 45568798#3 209262053 145348933 45568793#0 45568793#1 4470840#1 4470840#2 45787318#0 45787318#1 -45773042#0 -4470839#4 -4470839#3 -4470839#2 -4470839#1 -4470839#0 -210429351#1 -210429351#0 -45051111#1 -45051111#0 28380058#0 28380058#1 28380058#2 185136473 185136472 45074530 4497320 4397805 4521153#0 4521153#1 4521153#2 20448023 990894174 -4745074 -1089452022#5 -1089452022#4 -1089452022#3 -1089452022#2"/>
    </vehicle>
    <vehicle id="10" type="truck" depart="150.00">
        <route edges="4548377#10 4548377#11 -4548377#11 -4548377#10 -4548377#9 -4548377#7 -4548377#5 -4548377#4 -4548377#3 -4548377#2 -4548377#1 -4494926#23 -4494926#22 -4494926#20 37681351#0 37681351#1 37768766 37768772#0 37768772#1 37768772#2 -202753992#5 -202753992#4 -202753992#3 -202753992#2 -202753992#1 -202753992#0 4628071#0 4628071#1 4628071#2 4628071#4 202753993#0 202753993#1 202753993#2 202753993#3 202753993#4 202753993#5 1097150696#0 1097150695#1 1097150695#2 156536760#1 156536760#2 1103822694 4839480 143784299 4839474#0 4839474#1 170560357 891957416 202753581#0 202753581#1 891957415#0 891957415#1 250478231#0 250478231#1 218310239#0 -145348391#7 -145348391#6 -145348391#5 -145348391#4 -145348391#2 -145348391#1 -145348391#0 -31255614 -31255613#1 -31255613#0 -118794905 -31255612 -209281127 31000811#0 31000811#1 31000811#2 31000811#3 31000811#4 31000811#5 209281125#1 209281125#2 209281125#3 209247057#0 209247057#1 209247057#2 -30879543 -30879533#1 -209247060#0 -30879948#1 30879948#1"/>
    </vehicle>
    <vehicle id="11" type="truck" depart="165.00">
        <route edges="-4995516#5 -4995516#4 -4995516#3 5204092#4 5204092#5 5204092#6 5204092#7 5204092#8 5204092#9 204735313#5 4240200 -231761203 -5218779#1 -5218779#0 -5218778#4 -5218778#3 -5218778#2 -5218778#1 -5218778#0 -8073877#3 -8073877#2 -8073877#1 -8073877#0 -992498971 4571963#0 4571963#1 1103815102 4571965 233180596 386987321 1762#1 119028145#0 119028145#1 386959075 386959076 1074240853 1735 205818337 22731427 163763584 4287401 4784924 129627171 380554727 69067201 736368181 4798872 4798873 4764320#0 4764320#1 417402319 4829972 28379982#0 28379982#1 4701545 28379992#0 28379992#1 28379992#2 28379992#3 28379992#4 28379992#5 28379992#6 28379992#7 28379992#8 28379992#9 28379992#10 28379992#11 28379992#12 28379992#13 28379992#14 202737431#1 202737431#2 974404842 974404841 168901489 974404843 168901488#0 168901488#1 168901488#2 168901488#3 168901488#4 45074753#0 45074753#1 45074753#2 45074753#3 45074753#4 45074753#5 45074753#6 45074753#7 45074753#8 45074753#9 -199097888#1 -199097888#0 -45461362#3 24317950#0 24317950#1 -45074754#1 -45074754#0 -45074755#2 -45074755#1 -45074755#0 -24317879 24317507#0 24317507#1 24317507#2 24317507#3 24317507#4 24317509 24317510#0 24317510#1 24317510#2 24317510#3 24317510#4 24317510#5 24317510#6 166133655 166133657#0 166133657#1 166133657#2 -166133657#2 -166133657#1 -166133657#0 -166133655 -24317510#6 -24317510#5"/>
    </vehicle>
    <vehicle id="13" type="truck" depart="195.00">
        <route edges="-20904356#4 -20904356#3 20904356#3 20904356#4 -20904323#1 -20904323#0 -20903773#4 -20903773#3 -20903773#2 -20903773#1 179689712#1 179689712#4 179689712#5 179689712#6 179689712#7 179689712#8 179689712#9 -120316914#3 -120316914#2 -120316914#1 -120316914#0 -897250352#9 -897250352#8 -897250352#7 -897250352#6 -897250352#5 -897250352#4 -897250352#3 -897250352#2 -897250352#1 -897250352#0 -158371794#15 -158371794#14 -158371794#13 -158371794#12 4589102#0 4589102#1 734401500#0 734401500#1 734401500#2 734401500#4 734401500#5 4575046#1 4575046#2 4575046#3 4575046#4 4876099 8149218#0 8149218#2 4611122#0 4611122#1 4611122#2 4611122#3 4611122#4 4611122#5 -4568172#3 -4568172#2 -4568172#1 4568171#1 4568171#2 4568171#3 45788183#1 368523978#0 368523978#1 22752433#0 22752433#1 368523977 -4904402#3 -4904402#2 -4904402#1 -4904402#0 24324664#25 45073137 4904404 4904407#0 4904407#1 4904407#2 24325205#0 24325205#1 24325205#2 24325205#3 24325205#4 24325205#5 -45382012 -31000810#3 -31000810#2 -31000810#0 -145348389#0 145348390#4 145348390#5 145348390#6 31000811#0 31000811#1 31000811#2 31000811#3 31000811#4 31000811#5 209281125#1 209281125#2 -209281125#2"/>
    </vehicle>
    <vehicle id="14" type="truck" depart="210.00">
        <route edges="4745018#2 4744977#2 4744977#3 4744977#4 382336252 382336253#0 4745019#3 4745019#4 4745019#5 4745019#6 4745019#7 4745019#8 384186891#2 384186891#3 384189457 384189461 4799015 384188710 4799544 45360887#0 45360887#1 4799025 4799019 4799021#0 4799021#1 939539211 939539210#0 939539210#1 939539210#2 939539210#3 939539210#4 939539210#5 939539209 4854053#0 4854053#1 4854053#4 4854053#5 4854053#7 4854053#8 747825732#0 747825732#1 747825732#2 747825732#3 209250806#18 209250806#20 209250806#21 209250806#22 209250806#23 209250806#24 209250806#25 209250806#26 209250806#27 209250806#28 209250806#29 -1103797412 -1103797413 -6182158#15 -6182158#14 -6182158#12 -6182158#11 -6182158#10 -6182158#3 -6182158#2 -6182158#1 -6182158#0 180579432#0 180579432#1 180579432#2 180579432#3 180579432#4 180579432#5 180579432#6 180579432#7 180579432#9 199095127#0 199095127#1 199095127#2 18099133#1 202158823#0 52011314 24298973#1 24298973#2 24298973#4 24298973#5 24298973#6 24298973#7 24298973#8 24298973#9"/>
    </vehicle>
    <vehicle id="15" type="truck" depart="225.00">
        <route edges="45489030#0 45489030#1 223994755#7 223994755#8 223994755#9 223994755#10 223994755#0 223994755#1 223994755#2 223994755#3 223994755#4 223994755#5 45489028 209282808#0 209282808#1 209282808#2 46727329 -24232508 -45071166#1 -45071166#0 30879267#0 30879267#1 30879269#0 30879269#1 30879269#2 -30879252#2 -30879252#1 -30879252#0 209282117#0 209282117#1 209282117#2 209282117#4 30878916 -30878902#5 -30878902#4 -30878902#3 -30878902#1 -30878902#0 45409540#0 45409540#1 45409540#2 45409540#3 45409540#4 45409540#5 145348390#0 145348390#1 145348390#2 145348390#3 145348390#4 145348390#5 145348390#6 209281127 31255612 118794905 31255613#0 31255613#1 31255614 145348391#0 145348391#1 145348391#2 145348391#4 145348391#5 145348391#6 145348391#7 250475811#0 250475811#1 250475811#2 250475811#3 250475811#4 250478232#1 202753587 170560360 417577245 22731341#0 22731342 55668648 478847215 478847214 22821276 4470836 4470837 3469492#0 3469492#1 4345003 23814109 4763862 380554196 417402316 124452930 4798879 4764310 736368180 4287403 380554728"/>
    </vehicle>
    <vehicle id="16" type="truck" depart="240.00">
        <route edges="20279756#3 1157030914 -26303872 -20279746#3 -20279746#2 -20279746#1 -20279746#0 4470839#0 4470839#1 4470839#2 4470839#3 4470839#4 45773042#0 45773048 45787308 45786309#2 383167847 209263579 32405 45360553 45569651 198642283 4706944#0 4706944#1 4706944#2 -968763923#1 -968763923#0 -968763924 -4696644#2 4764010 4764011 4764012 417402315 124452930 4798879 4764310 736368180 23802711 380554729 69067222#0 69067222#1 102058907 226286791 595322007 -389802951#2 -389802951#1 -389802951#0 -203957021#3 -203957021#2 8751894#0 8751894#1"/>
    </vehicle>
    <vehicle id="17" type="truck" depart="255.00">
        <route edges="-7581303#4 -7581303#3 -7581303#2 -7581303#0 4592199#6 4592199#7 4592199#8 8104379#0 8104379#1 8104379#2 8104379#3 8104379#4 8104379#5 23219484 -232836120 -8752500#2 -8752500#1 -8752500#0 -888227533#2 -888227533#1 -888227533#0 -8104377 25845035#0 25845035#1 25845035#2 25845035#3 25845035#4 -404158550 -26404003 -12790898 -4287346#1 -4287346#0 -4545725#1 -990822939#0 -990822937 -990822938 -973334484#1 -973334484#0 -26404121#1 -26404121#0 -973334483#1 -973334483#0 -995103498#1 -25566799#1 -25566799#0 -990822936#2 -990822936#1 4876190#0 4876190#1 4876190#2 4876190#3 4876189 1058909732 4296031#0 4296031#1 4799422 380554725 69067201 736368181 4798872 69067218 4763830 4345001 4345002#0 4345002#1 3469493 579403732 579403734 4470835 1801 1126700706 124452933 24324609 45494754 114331028 118222680#0 4853108 368523975 368523976 368523979#1 368523979#2 -45788183#1 -4568171#3 -4568171#2 -4568171#1 45787696 45787695#0 45787695#1 45787695#2 45787695#3 22736800#0 22736800#1 209284796#0 209284796#1 209284796#2 209284796#3"/>
    </vehicle>
    <vehicle id="18" type="truck" depart="270.00">
        <route edges="4644897#2 4644897#3 221112625#0 221112625#1 4573820#0 4573820#1 221112638 45049553 203403883#0 143769303 4483892#0 4483892#1 4483893#0 4483893#2 4483893#3 4483893#4 45051085 4397805 4521153#0 4521153#1 4521153#2 1088915061 4981556#0 4981556#1 4981556#3 4981556#4 -1089452022#0 -47168895#1 -47168895#0 -4494913#5 -4494913#4 -4494913#3 -4494913#2 -4494913#1 -4494913#0 983637050#0 983637050#1 983637050#2 8119016#0 8119016#1 114002811#0 114002811#1 114002811#2 156536765 -28891695#2 102147604#0 102147604#1 -4548199#3 -4548199#2 -4548199#1 -4548199#0 4548298#0 4548298#1 4548298#2 4548298#3 4548298#4 4548298#5 -4712909#8 -4712909#7 -4712909#6 -4712909#5 -4712909#4 -4712909#3 24316719#0"/>
    </vehicle>
    <vehicle id="20" type="truck" depart="300.00">
        <route edges="30879981#2 30879981#3 30879981#4 46493820 166125739 6182165 6182163#2 46493560 46493559 46493485 46493484#0 202753583#0 202753583#1 250475811#0 250475811#1 250475811#2 250475811#3 250475811#4 250478232#1 202753587 170560360 417577245 22731341#0 22731341#1 55668654 384218092#0 384218092#1 55668655#0 55668655#1 -706496749#2 -706496749#1 -706496749#0 239811653 164500948#0 -156536760#2 -156536760#1 -1097150695#2 -1097150695#1 -1097150696#0 -202753993#5 -202753993#4 -202753993#3 -202753993#2 -202753993#1 -202753993#0 -4628071#4 -4628071#2 -4628071#1 -4628071#0 202753992#0 202753992#1 202753992#2 202753992#3 202753992#4 202753992#5 -37768772#2 -37768772#1 -37768772#0 -37768766 -37681351#1 -37681351#0 4494926#20 4494926#22 4494926#23 4548377#1 4548377#2 4548377#3 4548377#4 4548377#5 4644950#0 4644950#1 4644950#2 4644950#4 4644950#5 4644950#6 -168742557#4 -168742557#3"/>
    </vehicle>
    <vehicle id="21" type="truck" depart="315.00">
        <route edges="-31000810#2 -31000810#0 -145348389#0 145348390#4 145348390#5 145348390#6 209281127 31255612 118794905 31255613#0 31255613#1 31255614 145348391#0 145348391#1 145348391#2 145348391#4 145348391#5 145348391#6 145348391#7 250475811#0 250475811#1 250475811#2 250475811#3 250475811#4 250478232#1 202753587 170560360 417577245 22731341#0 22731342 55668648 478847215 478847214 22821276 4981569 199863045 3469491 45785312#0 45787318#0 45787318#1 -45773042#0"/>
    </vehicle>
    <vehicle id="22" type="truck" depart="330.00">
        <route edges="-20466083#0 20466083#0 20466083#1 -4494913#5 -4494913#4 -4494913#3 -4494913#2 -4494913#1 -4494913#0 4741290 -83607382#8 -83607382#6 -83607382#5 -83607382#3 -83607382#2 -83607382#1 -83607382#0 -595322020#3 -595322020#2 -595322020#1 -595322020#0 -1097150694 -4521173 -132741010#1 -132741010#0 132741009 4642285#0 4642285#1 4642285#2 4642285#3 33175470#1 33175470#2 33175470#3 33175470#4 47172045#0 47172044 -164087239 -331674956#1 -331674956#0 972410213 4713080 972410214 412175191#1 412175191#2 164090947#0 4803254 4803257#0 4803257#1 4803260 15816853 39891126 4869276#1 4869274#0 4869274#1 42805770#1 203956224#0 203956224#1 203956225#0 41277388#0 41277388#1 41277388#2 41277388#3 41277388#4 226435395 42805767#0 42805767#1 -153227133#5 -153227133#4 -153227133#3 -153227133#2 -153227133#1 -153227133#0 -34990734#2 -34990734#1 -34990734#0 -42806988 -380052511"/>
    </vehicle>
    <vehicle id="23" type="truck" depart="345.00">
        <route edges="-209284796#5 -209284796#4 -209284796#3 -209284796#2 -209284796#1 -209284796#0 118179639#0 118179639#1 -4548358#1 -4548358#0 -45787675#1 -45787675#0 -4548371 -4611122#5 -4611122#4 -4611122#3 -4611122#2 -4611122#1 -4611122#0 -8149218#2 -8149218#0 -4876099 -4575046#4 -4575046#3 -4575046#2 -4575046#1 -734401500#5 -734401500#4 -734401500#2 -734401500#1 -734401500#0 -4589102#1 -4589102#0 6897483#1 6897483#2 6897483#3 6897483#4 6897483#5 6897483#6 6897483#7 4627911#0 4627911#2 4627911#3 4627911#5 942627333 942627348#0 942627351 158366450#0 158366450#1 158366455#1 389584479#0 389584479#1 389584479#2 5203960#1 45838561 5203959 225631527#1 225631527#2 275118495#0 275118495#1 382885504 382886583 419734768#0 419734768#1 419734768#3 972900201#0 972900201#1 275114472#0 275114472#1 419721957#1 119802025 275114462#0 275114462#1 275114462#2 275114462#3 -5203965#1 -5203965#0 -5203966 -5203964#3 -5203964#2 -5203964#1 -5203964#0 -8515615#8 -8515615#7 -8515615#6 -8515615#5 -8515615#4 -8515615#3 -8515615#2 -8515615#1 -8515615#0 188742459#1 275573119#0 275573119#1 188742458#0 188742458#1 188742458#2 188742458#3 24275165 -12786140 -12786139#6 -12786139#5 -12786139#4 -12786139#3 -12786139#2 -12786139#1 -12786139#0 630263263 -8153940 -102632910 -4856764#9 -4856764#8 -4856764#7 -4856764#5 -4856764#4 -4856764#3 -4856764#2 -4856764#1 -4856764#0 -389552267#1 -389552267#0 389552263#0 389552263#1 202877696#2 202877696#3 381386366#0 381386366#1 381386366#2 -4555866#12 -4555866#11 -4555866#10 -4555866#9 -4555866#8 -4555866#7 -4555866#6 -4555866#5 -4555866#4 -4555866#3 -4555866#2"/>
    </vehicle>
    <vehicle id="24" type="truck" depart="360.00">
        <route edges="24317424#4 -24317424#4 -24317424#3 -24317424#2 -24317424#1 -24317424#0 -52044531#1 -52044531#0 -52044532 -24299685#1 -24299685#0 -973877678#1 -973877678#0 -180579432#9 -180579432#7 -180579432#6 -180579432#5 -180579432#4 -180579432#3 -180579432#2 -180579432#1 -180579432#0 6182158#0 6182158#1 6182158#2 6182158#3 6182158#10 6182158#11 6182158#12 6182158#14 6182158#15 1103797413 1103797412 -209250806#29 -209250806#28 -209250806#27 -209250806#26 -209250806#25 -209250806#24 -209250806#23 -209250806#22 -209250806#21 -209250806#20 -209250806#18 -209250806#15 -209250806#9 -209250806#8 -209250806#6 -209250806#5 -209250806#3 -209250806#2 -209250806#1 -2118 4696644#0 4764009 4764011 4764012 417402315 124452930 4798879 4764310 736368180 4287403 380554728 93228761 205818724#0 205818724#1 69067205 69067225 4803181 417402882#0 417402882#1 164087240#0 5204138#1 164087237#0 164087237#1 972410217 8073970#0 8073970#2 8073971#0 8073971#1 78407717#0 78407717#1 78407717#2 78407717#3 78407717#4 78407717#5 78407717#6 -78407717#6"/>
    </vehicle>
    <vehicle id="25" type="truck" depart="375.00">
        <route edges="-70223050#2 70223050#2 24329448#0 -24325214#0 24325205#1 24325205#2 24325205#3 24325205#4 24325205#5 -45382012 -31000810#3 -31000810#2 -31000810#0 -145348389#0 145348390#4 145348390#5 145348390#6 209281127 31255612 118794905 31255613#0 31255613#1 31255614 145348391#0 145348391#1 145348391#2 -32533578#2 -32533578#1 -32533578#0 30880184#4 175489109#0 -175489109#0 -30880184#4"/>
    </vehicle>
    <vehicle id="26" type="truck" depart="390.00">
        <route edges="-4381453#1 -4381453#0 4381453#0 4381453#1 380852628#1 -4381466#1 -4381466#0 158734875#16 1010182802#1 177461759#2 177461766#1 177461766#2 177461766#3 177461766#4 4340834 421880891 421880890 4340835#1 4340835#2 4340835#3 594888675#0 594888675#1 594888675#3 594888675#4 594888675#5 594888675#6 176982395#0 176982395#2 176982395#3 176982395#4 176982395#6 176982395#7 176982395#8 176982395#9 176982395#10 176982395#11 176982395#12 176982395#14 101987067 4287345#0 4287345#1 4287345#3 4287345#4 4287345#5 4287345#6 4287345#7 4287345#8 4287345#10 4869258 4869273#0 4869272 4764313 4764315 69067205 69067225 4803181 417402882#0 417402882#1 164087240#0 164087246#1 164087246#3 164087246#4 412177235#1 412177235#3 412177235#4 9788059#1 9788059#2 11339912#0 11339912#1 5204135#0 8104173#1 8104173#2 8104174 -33175470#4 -33175470#3 -33175470#2 -33175470#1 -4642285#3 -4642285#2 -4642285#1 -4642285#0 431740498#1 431740498#2 431740498#3 431740498#4 431740498#5 431740498#7 431740498#10 431740498#11 4567181 4856735#0 4856735#2 4856735#3 4856735#4 4589100#0 4589100#1 4589100#2 4589100#3 45103741#0 45103741#1 -5203957#11 -5203957#10 -5203957#9 -5203957#8 -5203957#7 -5203957#6 -5203957#5 24300060#0 24300065#0 24300065#1 24300065#2 24300065#4 78338473#0 78338473#1"/>
    </vehicle>
    <vehicle id="27" type="truck" depart="405.00">
        <route edges="24324664#24 -24324664#24 -24324664#23 -24324664#22 -24324664#21 -24324664#20 -24324664#19 -24324664#18 -24324664#16 -24324664#15 -24324664#14 -24324664#13 -24324664#12 -24324664#10 -24324664#9 -24324664#6 -24324664#5 -24324664#3 -24324664#2 -24324664#0 45494613#0 45494613#1 202753584 22731339 22731340#0 202753580 20279843 250478229#0 250478229#1 250478229#2 250478229#4 250478229#5 1039370199 553931253#0 553931253#2 553931253#6 553931253#7 553931253#8 553931253#9 553931253#10 553931253#11 553931253#12 553931253#13 1119398509#0 1119398509#1 37802170 37802168#0 37802168#1 37802168#2 37802168#3 37802168#4 37802168#5 -37802142#6 -37802142#5 -37802142#4 -37802142#3 -37802142#2 -37802142#1 -168901488#4 -168901488#3 -168901488#2 -168901488#1 -168901488#0 -974404843 -168901489 -974404841 -974404842 -202737431#2 -202737431#1 -209249182#14 -209249182#13 -209249182#12 -209249182#11 -209249182#10 -209249182#9 -209249182#8 -209249182#7 -209249182#6 -209249182#5 24299333#0 24299333#1 24299334#0"/>
    </vehicle>
    <vehicle id="28" type="truck" depart="420.00">
        <route edges="-24317846#1 -24317846#0 37802141#3 37802141#4 37802141#5 37802141#7 202753583#0 202753583#1 250475811#0 250475811#1 250475811#2 250475811#3 250475811#4 250478232#1 202753587 170560360 417577245 22731341#0 22731341#1 55668654 384218092#0 384218092#1 55668655#0 55668655#1 -706496749#2 -706496749#1 -706496749#0 239811653 164500948#0 -156536760#2 -156536760#1 -1097150695#2 -1097150695#1 -4475203#0 -685023881#3 -685023881#1 -685023881#0 -4494913#12 -4494913#11 -4494913#10 -4494913#9 -4494913#8 -4494913#7 -4494913#6 -4494913#5 -4494913#4 -4494913#3 -4494913#2 -4494913#1 -4494913#0 4741290 -83607382#8 -83607382#6 -83607382#5 -83607382#3 -83607382#2 -83607382#1 -83607382#0 -595322020#3 -595322020#2 -595322020#1 -595322020#0 -1097150694 -4521173 -132741010#1 -132741010#0 132741009 132741018#1 132741018#2 132741018#3 431732045 -204867807 -137527047#2 -137527047#1 -137527047#0 132751171 4995800#1 144176774#5 144176774#6 144176774#7 144176774#8 144176774#9 144176774#10 -42250357#5 -42250357#4 -78407514#1 -78407514#0 -4806323#6 -4806323#4 -4806323#2 -4806323#1 4483407#0 4483407#1 4483407#2 4483407#3 4483407#4 4483407#5 203910670#0 203910670#1 203910670#2 203910670#3 203910670#4 203910670#5 203910670#6 5203969#0 5203969#1 41483050 385315764 41483052#0 41483052#1 5203968#2 5203968#3 5203968#4 5203970#0 5203972 385344417 4995733 385344418 385315763 379647417#0 379647417#1 379647417#2 379647417#4 379647417#5"/>
    </vehicle>
    <vehicle id="29" type="truck" depart="435.00">