<?xml version="1.0" encoding="UTF-8"?>

<!-- generated on 2022-04-27 13:12:23 by Eclipse SUMO netedit Version v1_12_0+2325-8f8fe5402ec
-->

<routes xmlns:xsi="http://www.w3.org/2001/XMLSchema-instance" xsi:noNamespaceSchemaLocation="http://sumo.dlr.de/xsd/routes_file.xsd">
    <!-- Vehicles, persons and containers (sorted by depart) -->
    <personFlow id="f_0" begin="0.00" end="1000.00" period="exp(0.20)">
        <personTrip from="348583831#0" to="745656019#0"/>
    </personFlow>
    <personFlow id="f_1" begin="0.00" end="1000.00" period="exp(0.20)">
        <personTrip from="541676222" to="145009985#0"/>
    </personFlow>
    <personFlow id="f_2" begin="0.00" end="1000.00" period="exp(0.20)">
        <personTrip from="745656019#0" to="348583831#0"/>
    </personFlow>
</routes>
