<?xml version="1.0" encoding="UTF-8"?>

<!-- generated on 05/08/19 09:16:09 by Eclipse SUMO duarouter Version v1_2_0+0280-89bb845180c
<configuration xmlns:xsi="http://www.w3.org/2001/XMLSchema-instance" xsi:noNamespaceSchemaLocation="http://sumo.dlr.de/xsd/duarouterConfiguration.xsd">

    <input>
        <net-file value="osm.net.xml"/>
        <additional-files value="osm_stops.add.xml,osm_pt.rou.xml"/>
        <route-files value="osm.pedestrian.trips.xml"/>
    </input>

    <output>
        <output-file value="osm.pedestrian.rou.xml"/>
        <alternatives-output value="osm.pedestrian.rou.alt.xml"/>
    </output>

    <time>
        <begin value="0"/>
        <end value="3600.0"/>
    </time>

    <report>
        <no-warnings value="true"/>
        <ignore-errors value="true"/>
        <no-step-log value="true"/>
    </report>

</configuration>
-->

<routes xmlns:xsi="http://www.w3.org/2001/XMLSchema-instance" xsi:noNamespaceSchemaLocation="http://sumo.dlr.de/xsd/routes_file.xsd">
    <vType id="ped_pedestrian" vClass="pedestrian"/>
    <person id="ped0" type="ped_pedestrian" depart="0.00">
        <walk edges="26991766#10 26991766#9 -302943909#0 -302943909#1 302943909#2 -302943909#3 302943909#4 302943909#5 579269943#2 131910473#0 -142575656#0"/>
    </person>
    <person id="ped1" type="ped_pedestrian" depart="1.00">
        <walk edges="-53529255#6 53529255#5 -53529255#4 -53529255#3 53529255#2 -53529255#1 -53529255#0 -53529200#1 -53529200#0 -26444469#3 175355778 -40089662#7 204721579#6 204721579#7 204721579#8 153021549#0 153021549#1" busStop="1862990707"/> <!-- Otto-Franke-Straße -->
        <ride busStop="1656195133" lines="163:3" intended="pt_bus_163:3.0" depart="597.00"/> <!-- S Adlershof -->
        <walk edges="206889086#1 152839448 541676219 318210389#0 -52080655#2 -318210394#0"/>
    </person>
    <person id="ped2" type="ped_pedestrian" depart="2.00">
        <walk edges="40191607#2 40191607#1 52036180#4 52036180#2 578659338#2 578659339#1 578659339#0 318210373#1"/>
    </person>
    <person id="ped3" type="ped_pedestrian" depart="3.00">
        <walk edges="579026241 579026211#5 147859765#3 147859765#2 147859765#1 147859766 142575691#5 142575691#2 142575691#1 142575691#0 143308542#7 81096580#2 81096580#0 579026163#2 579026183#1 579026183#0 579026179#1 24733698#0 24733697#1 -24791992 -143308600#1 -143308600#0"/>
    </person>
    <person id="ped4" type="ped_pedestrian" depart="4.00">
        <walk edges="142575704#4 142575704#3 142575704#2 -142575656#7 -142575656#8"/>
    </person>
    <person id="ped5" type="ped_pedestrian" depart="5.00">
        <walk edges="-318210371#0 -318210362 38160001#1 38160001#0 172013798#3 147859765#6 147859765#5"/>
    </person>
    <person id="ped6" type="ped_pedestrian" depart="6.00">
        <walk edges="-142575656#12 -142575656#11 -142575656#10 -142575656#9 -142575656#8 -142575656#7 -142575656#6 -142575656#5 -142575656#4 -302943908#1 -302943908#0"/>
    </person>
    <person id="ped7" type="ped_pedestrian" depart="7.00">
        <walk edges="31100755#1 -31100755#2 142575677#2 142575677#3 -318210378#3" busStop="-945142208"/> <!-- Hans-Schmidt-Straße -->
        <ride busStop="1383533461" lines="163:2" intended="pt_bus_163:2.1" depart="783.00"/> <!-- Adlergestell/Glienicker Weg -->
        <walk edges="318210360#0 190928926#0 40191605#2 187122892#14"/>
    </person>
    <person id="ped8" type="ped_pedestrian" depart="8.00">
        <walk edges="-318210377#1 -318210377#0 -31050360#2 -31050360#1 -31050360#0 143308546#1 143308546#2" busStop="464396566"/> <!-- Walther-Nernst-Straße -->
        <ride busStop="1560223236" lines="162:0" intended="pt_bus_162:0.0" depart="179.00"/> <!-- Rudower Chaussee/Wegedornstraße -->
        <walk edges="143308587#1 24214694#3 24214694#4 24214694#5"/>
    </person>
    <person id="ped9" type="ped_pedestrian" depart="9.00">
        <walk edges="540388567#1" busStop="30499115"/> <!-- S Adlershof -->
        <walk edges="72230304#1 218797686#0 458921214" busStop="1704693444"/> <!-- S Adlershof -->
        <ride busStop="1704693381" lines="63:1" intended="pt_tram_63:1.0" depart="241.00"/> <!-- Magnusstraße -->
        <walk edges="143308542#6 143308542#7 142575691#0 142575691#1 142575691#2 142575691#5 147859766 147859765#1 147859765#2 147859765#3 579026211#5 -114692703#0"/>
    </person>
    <person id="ped10" type="ped_pedestrian" depart="10.00">
        <walk edges="540221756" busStop="1704693444"/> <!-- S Adlershof -->
        <walk edges="458921214 218797686#0 329733354#3"/>
    </person>
    <person id="ped11" type="ped_pedestrian" depart="11.00">
        <walk edges="116342915 147859765#2 147859765#3 579026211#5 147859765#6 172013798#3 38160001#0 38160001#1 318210367#1 318210364 318210371#1 142575667#0 48858191#1 48858191#3 318210383#0 336335429#1 -24152582#0"/>
    </person>
    <person id="ped12" type="ped_pedestrian" depart="12.00">
        <walk edges="579691100#2 -320154321#0 -146511461#1 153021549#0 153021549#1" busStop="1862990707"/> <!-- Otto-Franke-Straße -->
        <ride busStop="1656195133" lines="163:0" intended="pt_bus_163:0.0" depart="151.00"/> <!-- S Adlershof -->
        <ride busStop="301331956" lines="164:0" intended="pt_bus_164:0.0" depart="396.00"/> <!-- Magnusstraße -->
        <walk edges="143308546#13 81096580#0 81096580#2 143308542#7 142575691#0 142575691#1 142575691#2 142575691#5 147859763#1 115921101#0"/>
    </person>
    <person id="ped13" type="ped_pedestrian" depart="13.00">
        <walk edges="-143308673#5 -143308673#4 -403442277#0 -461093307 415852811 415852812 415852813 415693098#1 415693098#0 318210395 -190083618#2 -24214694#5 -24214694#4 -24214694#3 143308590#0 143308542#0 143308542#1 143308542#3 143308542#4 143308542#5 143308542#6" busStop="306982602"/> <!-- Magnusstraße -->
        <ride busStop="464396589" lines="162:3" intended="pt_bus_162:3.0" depart="694.00"/> <!-- Walther-Nernst-Straße -->
        <walk edges="143308542#16 143308542#17 143308552#1 143308552#2 -318210361#2 -318210361#1 -318210361#0 -314415495#20 -314415495#18 -314415495#17 314415495#15 314415495#14 314415495#13 314415495#12 314415495#11 -142575726#0 -142575726#1 -142575726#2 143482763 -143482770#0 -143482774#0 -143482761"/>
    </person>
    <person id="ped14" type="ped_pedestrian" depart="14.00">
        <walk edges="579026163#4 579026163#3 579026163#2 81096580#0 81096580#2 143308542#7 142575691#0 142575691#1 142575691#2 142575691#5 147859766 147859765#1 147859765#2 147859765#3 579026211#5 147859765#6 172013798#3 38160001#0 38160001#1 318210367#1 318210364 318210371#1 142575667#0 578917019 578917014 257131020"/>
    </person>
    <person id="ped15" type="ped_pedestrian" depart="15.00">
        <walk edges="540223981#0 140162607 540223976 540224357#1 230625606#1 398770009#0"/>
    </person>
    <person id="ped16" type="ped_pedestrian" depart="16.00">
        <walk edges="175357593#1 -175357597#1 -175357591#0 579691070#1 149611514#3 579691070#3 -149611524#2 70910049"/>
    </person>
    <person id="ped17" type="ped_pedestrian" depart="17.00">
        <walk edges="142575656#1 142575656#0 -314415495#17 -314415495#15 -314415495#14" busStop="-385200818"/> <!-- Albert-Einstein-Straße -->
        <ride busStop="-1560223555" lines="260:0" intended="pt_bus_260:0.0" depart="261.00"/> <!-- Am Studio/Köpenicker Straße -->
        <walk edges="-314415495#3 314415495#1 81639685#0 48298278#0 43660343#1 43660343#0 152839434#2 204721579#2"/>
    </person>
    <person id="ped18" type="ped_pedestrian" depart="18.00">
        <walk edges="578659326 578659327#1 578659323 259466417#0 52081075#9 52081075#8 52081075#7 52081075#6 52081075#4 52081075#3 52081075#0 142575674#2 26004787#2 26004787#1 26004787#0 26004868#0"/>
    </person>
    <person id="ped19" type="ped_pedestrian" depart="19.00">
        <walk edges="579026199 81096589#1 143308542#6" busStop="1704693389"/> <!-- Magnusstraße -->
        <ride busStop="1704693457" lines="61:0" intended="pt_tram_61:0.0" depart="240.00"/> <!-- Walther-Nernst-Straße -->
        <walk edges="81096606#4 143308552#1 143308552#2 -318210361#2 -318210361#1 -318210361#0 -314415495#20 -314415495#18 -314415495#17 -314415495#15 -314415495#14" busStop="-385200818"/> <!-- Albert-Einstein-Straße -->
        <ride busStop="-1560223555" lines="260:0" intended="pt_bus_260:0.1" depart="861.00"/> <!-- Am Studio/Köpenicker Straße -->
        <walk edges="-314415495#3 -314415495#1 -314415495#0 336335429#1 -24152582#1 24152572#5"/>
    </person>
    <person id="ped21" type="ped_pedestrian" depart="21.00">
        <walk edges="-320741894#1 -190083608#0 -172014854#2 -172014854#1 -172014854#0 -147859763#10 -147859763#9 -147859763#8 -147859763#6 -147859763#5 -147859763#4 -147859763#3 -147859763#2 -147859763#1 579026208#1 579026211#0 579026211#1 579026211#2 -579026240#2"/>
    </person>
    <person id="ped22" type="ped_pedestrian" depart="22.00">
        <walk edges="-143308523#2 -143308523#1 -143308523#0 375685718#0 375685718#1 382647882 257131028 48858191#3 318210383#0 52243916#1 -43660343#1 43660343#0 152839434#2 204721579#2" busStop="1383533462"/> <!-- Adlergestell/Glienicker Weg -->
        <ride busStop="1862990707" lines="163:3" intended="pt_bus_163:3.1" depart="1132.00"/> <!-- Otto-Franke-Straße -->
        <walk edges="153021549#1 579671773#2 579671773#3 579671773#4 579671773#5 153021549#4 153021549#5 -331121198"/>
    </person>
    <person id="ped23" type="ped_pedestrian" depart="23.00">
        <walk edges="-143482779#1 314415495#4 314415495#3 314415495#1 81639685#0 48298278#0 43660343#1 43660343#0 152839434#2 204721579#2 204721579#3 53529919#1 -26444467#10 -26444467#9 -26444467#8 -26444467#7 -26444467#6 -53529431#0"/>
    </person>
    <person id="ped24" type="ped_pedestrian" depart="24.00">
        <walk edges="26843019#1 -26843019#0 142575688#2 142575688#3 -142575691#2 -142575691#1 -142575691#0 143308542#7 81096580#2 81096580#0 328287366#1 -71028777#3 -71028777#4 71028777#5 71028777#7 71028774#0 71028774#1 70133621#0 -156071615#3 -70214888#1 -133858467#0 133858467#1"/>
    </person>
    <person id="ped25" type="ped_pedestrian" depart="25.00">
        <walk edges="140162594 140162593" busStop="3508654675"/> <!-- S Adlershof -->
        <walk edges="206889086#1" busStop="1656195133"/> <!-- S Adlershof -->
        <ride busStop="-385200818" lines="260:0" intended="pt_bus_260:0.0" depart="132.00"/> <!-- Albert-Einstein-Straße -->
        <walk edges="-314415495#14 -314415495#13 -314415495#12 -314415495#11 -314415495#10"/>
    </person>
    <person id="ped26" type="ped_pedestrian" depart="26.00">
        <walk edges="-52081075#3 -52081075#2 143308546#6 143308546#5 143308546#4 142575735#0 143308542#15 143308542#16" busStop="464396589"/> <!-- Walther-Nernst-Straße -->
        <ride busStop="1383533492" lines="164:1" intended="pt_bus_164:1.0" depart="598.00"/> <!-- Büchnerweg -->
        <walk edges="23913524#5 579671827#1 579671829#0"/>
    </person>
    <person id="ped27" type="ped_pedestrian" depart="27.00">
        <walk edges="30978404#1 -30978404#0 -149670374 143308521#6 143308521#7 142575686#0 142575686#1 142575686#2 397678504#2 397678490#1 397678497#1 397678495#0 397678495#1 257072322#2 412992935 259466417#0 578659323 578659327#1 578659327#0 52081116#2 52081116#1 52081116#0 259433185"/>
    </person>
    <person id="ped28" type="ped_pedestrian" depart="28.00">
        <walk edges="-24791993 143308521#4 143308521#5 143308521#6 143308521#7 142575686#0 142575686#1 142575686#2 397678504#2"/>
    </person>
    <person id="ped29" type="ped_pedestrian" depart="29.00">
        <walk edges="-24152656#1 -24152597#4 -24152597#5 -257005614#2 -257005614#1 -24152582#0 336335429#1 81639685#0 314415495#1" busStop="945142241"/> <!-- Am Studio/Köpenicker Straße -->
        <ride busStop="664208807" lines="260:1" intended="pt_bus_260:1.0" depart="393.00"/> <!-- Wilhelm-Ostwald-Straße -->
        <walk edges="314415495#6 314415495#7 314415495#8 314415495#9 314415495#10 314415495#11 314415495#12 -314415495#13 328288211#1 -328288211#2 40985811 -40985810#1 302943909#5 -302943908#1 -142575656#4 -142575656#5 -142575656#6 -142575656#7 -142575656#8 -142575656#9 -142575656#10 142575656#11"/>
    </person>
    <person id="ped30" type="ped_pedestrian" depart="30.00">
        <walk edges="81639675#1 81639675#2 81639675#3 143308552#2 143308552#1 143308542#17 143308542#16 142575707 142575706 -142575708#1 -142575708#4 142575656#5 142575656#6 -142575704#2 -142575704#3 142575704#4 26991766#2"/>
    </person>
    <person id="ped31" type="ped_pedestrian" depart="31.00">
        <walk edges="220194458#0 220194458#3 458921214 218797686#0 72230304#1 85088361#1 40191606#0 153021549#5 153021549#4 579671773#5 579671773#4 579671773#3 579671773#2 153021549#1 153021549#0 204721579#8 204721579#7 204721579#6 -40089662#7 -40089662#6 -320153863#4 320153867"/>
    </person>
    <person id="ped32" type="ped_pedestrian" depart="32.00">
        <walk edges="579026157 579026155 143308562#3 -143308562#1 -143308562#0 143308521#1 143308521#2 143308521#3 143308521#4 143308521#5 143308521#6 143308521#7 -142575655#9 -142575655#8 -142575655#7 52081075#7"/>
    </person>
    <person id="ped33" type="ped_pedestrian" depart="33.00">
        <walk edges="-320741897 -143482755#2 -143482755#1 143482755#0 314415495#4 314415495#5 143482769#0 143482779#0 314415495#7 314415495#8 314415495#9 314415495#10 314415495#11 314415495#12 314415495#13 314415495#14 314415495#15 -314415495#17 -314415495#18 -314415495#20 -318210361#0 -318210361#1 -318210361#2 143308552#2 143308552#1 143308546#1 143308546#2" busStop="464396566"/> <!-- Walther-Nernst-Straße -->
        <ride busStop="301331956" lines="164:0" intended="pt_bus_164:0.1" depart="1129.00"/> <!-- Magnusstraße -->
        <walk edges="143308546#13 143308546#14 312889498#1 312889498#0 142575692#2 71028777#5 71028777#7 71028774#0 71028774#1 70133621#0 70133621#1 -149670380#1 -149670384#0 -24791993 143308521#3 -142575657#0 -142575657#1 -142575657#2 -142575657#3 -142575657#4"/>
    </person>
    <person id="ped34" type="ped_pedestrian" depart="34.00">
        <walk edges="114025356#0 -114024903#1 579026206#0 579026205#0 142575691#2 142575691#1 142575691#0 143308542#7 81096580#2 81096580#0 579026163#2 579026183#1 579026183#0 579026179#1 24733698#0 142575689 -52081075#4 -52081075#6"/>
    </person>
    <person id="ped35" type="ped_pedestrian" depart="35.00">
        <walk edges="-314415495#14 314415495#15 142575661#0 142575661#1 142575661#2 142575661#3 142575661#4 578659352#2 578659352#1 578659350#1 424689981 85088379 85088361#1 -23925119#1 -23925119#0 23925124#1 579671816 579671806#9 579671780#0 579671846#1 579671856#0 579671856#1"/>
    </person>
    <person id="ped36" type="ped_pedestrian" depart="36.00">
        <walk edges="579026212#0 147859765#6 579026211#5 147859765#3 147859765#2 147859765#1 147859766 -114024903#0 -114024903#1 -114024903#2 114024903#3 114024903#4 114024906"/>
    </person>
    <person id="ped37" type="ped_pedestrian" depart="37.00">
        <walk edges="312192832#1 312192842#0 257072321#4 45875459#0 45875459#1 412992929#0 412992929#1 259433184#0 142575684#1 -142575684#0 142575685#0"/>
    </person>
    <person id="ped38" type="ped_pedestrian" depart="38.00">
        <walk edges="579269944#2 143308637#1 -314415495#15 -314415495#17 -142575656#0 -142575656#1 142575656#3 142575656#4 -142575708#4 -142575708#1 142575706 142575707 143308542#15"/>
    </person>
    <person id="ped39" type="ped_pedestrian" depart="39.00">
        <walk edges="-503159210 -28888490#2 -28888490#3 231626696#1 579026193 579026194 579026236#0 -114024903#0 -114024903#1 -114024903#2 114024903#3 114024903#4 -114024903#5 -114024903#6 -38507369#1"/>
    </person>
    <person id="ped40" type="ped_pedestrian" depart="40.00">
        <walk edges="230625607#1 230625607#0 578659352#2 578659352#1 578659350#1 424689981 85088379 72230304#1 -45875465#0"/>
    </person>
    <person id="ped41" type="ped_pedestrian" depart="41.00">
        <walk edges="24152605 527170115#1 527170115#0 24152664#1 -24152593#2 -24152593#1 -24152593#0 43660343#1 48298278#0 48858192#1 318210388#0 48858193#1 -578917008 -142575704#14 142575704#13 142575704#12 142575704#11 142575704#10 -38159999#8 536699315#0 579269898#1"/>
    </person>
    <person id="ped42" type="ped_pedestrian" depart="42.00">
        <walk edges="142575688#10 142575688#9 142575688#8 142575688#7 142575688#6 142575688#5 142575691#2 142575691#1 142575691#0 143308542#7" busStop="1704693389"/> <!-- Magnusstraße -->
        <ride busStop="583899039" lines="61:0" intended="pt_tram_61:0.0" depart="240.00"/> <!-- S Adlershof -->
        <walk edges="218797686#0 458921214 220194458#3 82710639#5 82710639#6 52036180#2 578659338#2 578659339#1 578659339#0 -318210373#1"/>
    </person>
    <person id="ped43" type="ped_pedestrian" depart="43.00">
        <walk edges="92914055#0 92914055#1 397678504#0 397678493#0 397678493#1 397678496#1 397678500#1 397678502#2 -397678483 142575686#0 142575692#6 142575692#5 142575692#3 142575692#2 312889498#0 312889498#1 81096589#0 143308542#6" busStop="306982602"/> <!-- Magnusstraße -->
        <ride busStop="1383533492" lines="162:3" intended="pt_bus_162:3.0" depart="694.00"/> <!-- Büchnerweg -->
        <walk edges="23913524#5 149611514#7 149611514#6"/>
    </person>
    <person id="ped44" type="ped_pedestrian" depart="44.00">
        <walk edges="-143308673#0 174657426 -25951597#0 -403442277#1 -461093307 415852811 415852812 415852813 415693098#1 415693098#0 318210395 -190083618#2 -24214694#5 -24214694#4 -24214694#3 -26816590#2 26816590#1 -26816590#0 -26816413#1 -26816413#0 81096582#0 -81096582#1 -81096582#2 -142575688#14 -142575688#13 -142575688#12 -142575688#10 -142575688#9"/>
    </person>
    <person id="ped45" type="ped_pedestrian" depart="45.00">
        <walk edges="-149611511#2 579691070#3 149611524#5 146511461#6 26445851#2 26445851#1"/>
    </person>
    <person id="ped46" type="ped_pedestrian" depart="46.00">
        <walk edges="53529255#3 53529255#2 -53529255#1 -53529255#0 -53529200#1 -53529200#0 -26444469#3 175355778 -40089662#7 204721579#6 204721579#7 204721579#8 153021549#0 153021549#1" busStop="1862990707"/> <!-- Otto-Franke-Straße -->
        <ride busStop="1656195133" lines="163:3" intended="pt_bus_163:3.0" depart="597.00"/> <!-- S Adlershof -->
        <ride busStop="-385200818" lines="260:0" intended="pt_bus_260:0.1" depart="732.00"/> <!-- Albert-Einstein-Straße -->
        <walk edges="-314415495#14 -314415495#13 -314415495#12 579269944#5 -26991766#9 -26991766#8 -26991766#7 26991766#6 26991766#5 142575704#6"/>
    </person>
    <person id="ped47" type="ped_pedestrian" depart="47.00">
        <walk edges="-142575721#0 -142575731#1 142575685#0" busStop="1704693343"/> <!-- Karl-Ziegler-Straße -->
        <ride busStop="1704693457" lines="61:0" intended="pt_tram_61:0.0" depart="164.00"/> <!-- Walther-Nernst-Straße -->
        <walk edges="143308542#16 142575707 142575706 -142575708#1 -142575708#4 142575656#5"/>
    </person>
    <person id="ped48" type="ped_pedestrian" depart="48.00">
        <walk edges="87849665#0 87849665#1 149611514#7 -23913524#5" busStop="-1383533494"/> <!-- Büchnerweg -->
        <ride busStop="1560223236" lines="164:0" intended="pt_bus_164:0.0" depart="177.00"/> <!-- Rudower Chaussee/Wegedornstraße -->
        <walk edges="143308587#1 24214694#3 24214694#4 -24214694#5 -190083618#2 318210395 415693098#0 415693098#1 415852813 415852812 415852811 -461093307 -403442277#1 174657432"/>
    </person>
    <person id="ped49" type="ped_pedestrian" depart="49.00">
        <walk edges="70214888#2 -70214888#1 -133858466 142575659#0 71028774#1 71028774#0 71028777#7 71028777#5 -71028777#4 -71028777#3 328287366#1 81096580#0 81096580#2 143308542#7 -142575691#0 -142575691#1 -142575691#2 579026197#1"/>
    </person>
    <person id="ped50" type="ped_pedestrian" depart="50.00">
        <walk edges="-122666828#2 122666823#0 122666823#1 143308546#21 143308546#20 128643753#0 143308542#4 143308542#5" busStop="1704693381"/> <!-- Magnusstraße -->
        <ride busStop="1704693369" lines="61:1" intended="pt_tram_61:1.0" depart="362.00"/> <!-- Karl-Ziegler-Straße -->
        <walk edges="142575686#2 397678504#2 397678490#1 397678490#0"/>
    </person>
    <person id="ped51" type="ped_pedestrian" depart="51.00">
        <walk edges="318210394#0 52080655#0 158236381 220194458#0 220194458#3 458921214 218797686#0 72230304#1 85088361#1 40191606#0 153021549#5 153021549#4 579671773#5 579671773#4 -175357591#0 175357597#0"/>
    </person>
    <person id="ped52" type="ped_pedestrian" depart="52.00">
        <walk edges="-52081075#3 -52081075#2 142575674#2 26004787#2 26004787#1 26004787#0 142575656#7 142575704#2 142575704#3 -142575704#4 -26991766#5 -26991766#6 26991766#7"/>
    </person>
    <person id="ped53" type="ped_pedestrian" depart="53.00">
        <walk edges="-149611514#6 149611514#7 -23913524#5" busStop="-1383533494"/> <!-- Büchnerweg -->
        <ride busStop="464396566" lines="164:0" intended="pt_bus_164:0.0" depart="177.00"/> <!-- Walther-Nernst-Straße -->
        <walk edges="143308546#2 143308546#3 142575735#0 143308542#15 142575707 142575706 -142575708#1 -142575708#4 -142575656#4 -302943908#1 302943909#5 302943909#4 -302943909#3 302943909#2 -302943909#1 -302943909#0 -26991766#8 -142575728 302944175#0 142575737#0"/>
    </person>
    <person id="ped54" type="ped_pedestrian" depart="54.00">
        <walk edges="143308527#2 143308527#1 143308527#0 -318210378#2 -318210378#3" busStop="-945142208"/> <!-- Hans-Schmidt-Straße -->
        <ride busStop="3812676495" lines="163:2" intended="pt_bus_163:2.0" depart="183.00"/> <!-- Otto-Franke-Straße -->
        <walk edges="153021553#1 146511461#0 146511461#2 146511461#3 187122892#4 187122892#5 187122892#6 187122892#7 579691076#4"/>
    </person>
    <person id="ped55" type="ped_pedestrian" depart="55.00">
        <walk edges="579026211#9 147859765#6 579026211#5 147859765#3 147859765#2 147859765#1 147859766 -147859763#1 -147859763#2 -147859763#3 -147859763#4 -147859763#5 -147859763#6 -147859763#8 -147859763#9 -147859763#10 -172014854#0 -172014854#1 -172014854#2 320741893 320741894#0 318210395 415693098#0 415693098#1 415852813 415852812 415852811 -461093307"/>
    </person>
    <person id="ped56" type="ped_pedestrian" depart="56.00">
        <walk edges="147859763#1 142575691#5 142575691#2 142575691#1 142575691#0 143308542#7" busStop="1704693389"/> <!-- Magnusstraße -->
        <ride busStop="583899039" lines="61:0" intended="pt_tram_61:0.0" depart="240.00"/> <!-- S Adlershof -->
        <walk edges="218797686#0 72230304#1 85088361#1 40191606#0 153021549#5 153021549#4 579671773#5 579671773#4 579671773#3 579671773#2 153021549#1 153021549#0 204721579#8 204721579#7 204721579#6 -40089662#7 -40089662#6 -320153863#4 -320153863#0 -40089662#0 -26444467#10 -26444467#9 -26444467#8 -26444467#7 -26444467#6 -26444467#5 -26444467#4"/>
    </person>
    <person id="ped57" type="ped_pedestrian" depart="57.00">
        <walk edges="579269942 142598716#3 -142575704#3 -142575694#0 -142575694#1 -142575694#3 -142575694#4 -142575694#5 -147859765#5 -147859765#6 579026211#9 579026211#10"/>
    </person>
    <person id="ped58" type="ped_pedestrian" depart="58.00">
        <walk edges="-581596944 24152572#5 -24152582#1 336335429#1 318210383#0 48858191#3 48858191#1 142575667#0 318210371#1 142575704#14 142575704#13 142575704#12 142575704#11 142575704#10 142575704#8 142575704#7 142575704#6 26991766#2 26991766#1"/>
    </person>
    <person id="ped59" type="ped_pedestrian" depart="59.00">
        <walk edges="259433184#0 412992929#1 412992929#0 -52081075#9 -52081075#8 142575655#6 142575655#5 142575655#4 142575687#1 142575687#0 -142575710#2 -142575710#3 -142575710#4 -142575710#5 -318210378#3" busStop="-945142208"/> <!-- Hans-Schmidt-Straße -->
        <ride busStop="1383533461" lines="163:2" intended="pt_bus_163:2.1" depart="783.00"/> <!-- Adlergestell/Glienicker Weg -->
        <walk edges="318210360#0 152839434#2 43660343#0 -24152593#0 -24152593#1 -24152593#2 -24152593#4 -24152593#5 -24152593#6 -24152593#7 24152593#8 -24152572#0"/>
    </person>
    <person id="ped60" type="ped_pedestrian" depart="60.00">
        <walk edges="46039050#6 143308542#0 143308542#1 143308542#3 143308542#4 143308542#5" busStop="1704693381"/> <!-- Magnusstraße -->
        <ride busStop="1704693369" lines="61:1" intended="pt_tram_61:1.0" depart="362.00"/> <!-- Karl-Ziegler-Straße -->
        <walk edges="142575686#2 397678504#2 397678490#1 397678497#1 397678495#0 397678495#1 257072322#2 412992935 45875459#1 45875459#0 257072321#4 180789857#4"/>
    </person>
    <person id="ped61" type="ped_pedestrian" depart="61.00">
        <walk edges="52081116#3 52081116#4 52081116#7 70130339#2 70130339#3 118262353#2 -38915290 -318210378#5 -318210378#4 -318210378#3" busStop="-945142208"/> <!-- Hans-Schmidt-Straße -->
        <ride busStop="3812676495" lines="163:2" intended="pt_bus_163:2.1" depart="783.00"/> <!-- Otto-Franke-Straße -->
        <walk edges="153021553#1 204721579#8 204721579#7 204721579#6 -40089662#7 175355778 -26444469#3 -53529200#0 175355252"/>
    </person>
    <person id="ped62" type="ped_pedestrian" depart="62.00">
        <walk edges="-114024901 114949101#1 -172014854#1 -172014854#2 -190083608#1 579026211#11 579026211#10 -318210369#1 -318210367#0 -318210362 -318210371#0 142575704#14 -142575704#13 -137483014#0 -137483015#3 -137483015#2 114355960#0 114355960#1 114285344#1 114285344#0 114285341#1"/>
    </person>
    <person id="ped63" type="ped_pedestrian" depart="63.00">
        <walk edges="-137534616#1 579671786#0 579671786#1 579671786#2 579671786#3 579671786#4"/>
    </person>
    <person id="ped64" type="ped_pedestrian" depart="64.00">
        <walk edges="579026214 579026213#1 579026213#2 579026233#1 -142575694#5 147859765#3 147859765#2 147859765#1 147859766 142575691#5 142575691#2 142575691#1 142575691#0 143308542#7 143308542#6" busStop="306982602"/> <!-- Magnusstraße -->
        <ride busStop="464396589" lines="164:1" intended="pt_bus_164:1.0" depart="492.00"/> <!-- Walther-Nernst-Straße -->
        <walk edges="143308542#16 143308542#17 143308552#1 143308552#2 143308549#1 143308549#2 578659338#0 578659336"/>
    </person>
    <person id="ped65" type="ped_pedestrian" depart="65.00">
        <walk edges="-81096582#1 -81096582#2 142575688#14 142575688#13 142575688#12 142575688#10 142575688#9 142575688#8 142575688#7 142575688#6 142575688#5 142575688#3 142575688#2 142575688#1 142575688#0 26004787#2 26004787#1 26004787#0 142575656#7 142575704#2 142575704#3 -142575704#4"/>
    </person>
    <person id="ped66" type="ped_pedestrian" depart="66.00">
        <walk edges="579026213#2 579026233#1 -142575694#5 147859765#3 147859765#2 147859765#1 147859766 142575691#5 142575691#2 142575691#1 142575691#0 143308542#7 143308542#6" busStop="306982602"/> <!-- Magnusstraße -->
        <ride busStop="1383533459" lines="164:1" intended="pt_bus_164:1.0" depart="492.00"/> <!-- Abtstraße -->
        <walk edges="24152326#0 24152326#1 23925124#0 -23925124#1 -23925124#2 -149611511#1 -149611511#2 -149611514#4 579671836#0 579671876"/>
    </person>
    <person id="ped67" type="ped_pedestrian" depart="67.00">
        <walk edges="-143308562#1 142575690#0 142575690#2 142575690#3 -47770431#1 47770433#0 47770433#1 143308532#0 143308590#0 -24214694#3 -24214694#4 -24214694#5 -190083618#2 318210395 415693098#0 415693098#1 415852813 415852812 415852811 -461093307 -403442277#0 143308673#2"/>
    </person>
    <person id="ped68" type="ped_pedestrian" depart="68.00">
        <walk edges="-142575737#2 -142575737#1 246099080 -142575728 26991766#8 26991766#9 26991766#10 314415495#11 314415495#12 314415495#13 314415495#14 314415495#15 142575661#0 142575661#1 142575661#2 -318210373#1 578659339#0 578659339#1 578659338#2 52036180#2 82710639#6 82710639#5 220194458#3 458921214"/>
    </person>
    <person id="ped69" type="ped_pedestrian" depart="69.00">
        <walk edges="47770433#0 47770433#1 143308532#0 143308546#26 143308546#25 143308546#24 143308546#23 143308546#21 143308546#20 128643753#0 143308542#4 143308542#5 143308542#6" busStop="306982602"/> <!-- Magnusstraße -->
        <ride busStop="1383533459" lines="164:1" intended="pt_bus_164:1.0" depart="492.00"/> <!-- Abtstraße -->
        <walk edges="24152326#0 24152326#1 23925124#0 -23925124#1 -23925124#2 -149611511#1 -149611511#2 -187122892#1 579671767#1 579691076#0 187122892#5 -175355420#1 -175355422#0 -175355422#1"/>
    </person>
    <person id="ped70" type="ped_pedestrian" depart="70.00">
        <walk edges="143308587#0 143308587#1 24214694#3 24214694#4 -24214694#5 -190083618#2 318210395 190083616#1"/>
    </person>
    <person id="ped71" type="ped_pedestrian" depart="71.00">
        <walk edges="-503159210 -28888490#2 -28888490#3 231626696#1 231626696#0 -142575656#14 -142575656#15 -147859763#1 -147859763#2 -147859763#3 -147859763#4 148960375#1 579026211#15"/>
    </person>
    <person id="ped72" type="ped_pedestrian" depart="72.00">
        <walk edges="142575704#8 -142575737#5 -142575737#4 142575715 -142575737#1 246099080 -142575728 26991766#8 26991766#9 579269944#5 -314415495#12 -314415495#13 -314415495#14 -314415495#15 -314415495#17"/>
    </person>
    <person id="ped73" type="ped_pedestrian" depart="73.00">
        <walk edges="180789857#4 180789857#3 180789857#2 180789857#1 142575687#1 142575687#0 -142575710#2 -142575710#3 -142575710#4 -142575710#5 -142575677#3 439105525 -143308527#6 -448097237 318210394#0 52080655#0 578659338#0 578659338#1 578659337 578659341#1 398770009#2 398770009#1"/>
    </person>
    <person id="ped74" type="ped_pedestrian" depart="74.00">
        <walk edges="-302943909#4 302943909#5 -302943908#1 -142575656#4 -142575656#5 -142575656#6 -142575656#7 -142575656#8 -142575656#9 -142575656#10 -142575656#11 -142575656#12 -142575656#14 -142575656#15 -114024903#0 -114024903#1 114024903#2"/>
    </person>
    <person id="ped75" type="ped_pedestrian" depart="75.00">