<?xml version="1.0" encoding="UTF-8"?>
<!-- generated on 2019-05-02 16:58:09.027000 by $Id$
  options: -n osm.net.xml <doubleminus>seed 42 <doubleminus>fringe-factor 1 -p 1 -r osm.pedestrian.rou.xml -o osm.pedestrian.trips.xml -e 3600 <doubleminus>vehicle-class pedestrian <doubleminus>persontrips <doubleminus>prefix ped <doubleminus>trip-attributes modes="public" <doubleminus>additional-files osm_stops.add.xml,osm_pt.rou.xml
-->
<routes xmlns:xsi="http://www.w3.org/2001/XMLSchema-instance" xsi:noNamespaceSchemaLocation="http://sumo.dlr.de/xsd/routes_file.xsd">
    <vType id="ped_pedestrian" vClass="pedestrian"/>
    <person id="ped0" depart="0.00" type="ped_pedestrian">
        <personTrip from="26991766#0" to="-142575656#0" modes="public"/>
    </person>
    <person id="ped1" depart="1.00" type="ped_pedestrian">
        <personTrip from="-53529286#0" to="-320153863#4" modes="public"/>
    </person>
    <person id="ped2" depart="2.00" type="ped_pedestrian">
        <personTrip from="40191607#1" to="318210373#0" modes="public"/>
    </person>
    <person id="ped3" depart="3.00" type="ped_pedestrian">
        <personTrip from="579026240#2" to="-143308600#1" modes="public"/>
    </person>
    <person id="ped4" depart="4.00" type="ped_pedestrian">
        <personTrip from="142575704#8" to="-142575656#8" modes="public"/>
    </person>
    <person id="ped5" depart="5.00" type="ped_pedestrian">
        <personTrip from="-318210373#1" to="147859765#1" modes="public"/>
    </person>
    <person id="ped6" depart="6.00" type="ped_pedestrian">
        <personTrip from="-142575656#12" to="-302943908#1" modes="public"/>
    </person>
    <person id="ped7" depart="7.00" type="ped_pedestrian">
        <personTrip from="31050360#2" to="187122892#12" modes="public"/>
    </person>
    <person id="ped8" depart="8.00" type="ped_pedestrian">
        <personTrip from="-318210378#0" to="24214694#3" modes="public"/>
    </person>
    <person id="ped9" depart="9.00" type="ped_pedestrian">
        <personTrip from="540388567#0" to="-114692703#0" modes="public"/>
    </person>
    <person id="ped10" depart="10.00" type="ped_pedestrian">
        <personTrip from="540221746" to="329733354#1" modes="public"/>
    </person>
    <person id="ped11" depart="11.00" type="ped_pedestrian">
        <personTrip from="116343628#1" to="-24152582#1" modes="public"/>
    </person>
    <person id="ped12" depart="12.00" type="ped_pedestrian">
        <personTrip from="579691100#1" to="116024215" modes="public"/>
    </person>
    <person id="ped13" depart="13.00" type="ped_pedestrian">
        <personTrip from="-143308685#0" to="-143482761" modes="public"/>
    </person>
    <person id="ped14" depart="14.00" type="ped_pedestrian">
        <personTrip from="579026163#2" to="257072321#8" modes="public"/>
    </person>
    <person id="ped15" depart="15.00" type="ped_pedestrian">
        <personTrip from="540223979" to="398770009#0" modes="public"/>
    </person>
    <person id="ped16" depart="16.00" type="ped_pedestrian">
        <personTrip from="175357591#0" to="70255226#1" modes="public"/>
    </person>
    <person id="ped17" depart="17.00" type="ped_pedestrian">
        <personTrip from="142575656#11" to="192204854#0" modes="public"/>
    </person>
    <person id="ped18" depart="18.00" type="ped_pedestrian">
        <personTrip from="578659323" to="26004861#2" modes="public"/>
    </person>
    <person id="ped19" depart="19.00" type="ped_pedestrian">
        <personTrip from="579026198#0" to="24152572#3" modes="public"/>
    </person>
    <person id="ped20" depart="20.00" type="ped_pedestrian">
        <personTrip from="347935096#3" to="-142575688#6" modes="public"/>
    </person>
    <person id="ped21" depart="21.00" type="ped_pedestrian">
        <personTrip from="-320741896" to="-579026241" modes="public"/>
    </person>
    <person id="ped22" depart="22.00" type="ped_pedestrian">
        <personTrip from="-143308523#2" to="-334308447#0" modes="public"/>
    </person>
    <person id="ped23" depart="23.00" type="ped_pedestrian">
        <personTrip from="-143482779#1" to="-53529457#0" modes="public"/>
    </person>
    <person id="ped24" depart="24.00" type="ped_pedestrian">
        <personTrip from="26842943" to="134100873" modes="public"/>
    </person>
    <person id="ped25" depart="25.00" type="ped_pedestrian">
        <personTrip from="140162596" to="-314415495#11" modes="public"/>
    </person>
    <person id="ped26" depart="26.00" type="ped_pedestrian">
        <personTrip from="-52081075#6" to="579671827#1" modes="public"/>
    </person>
    <person id="ped27" depart="27.00" type="ped_pedestrian">
        <personTrip from="302944175#1" to="259433182#4" modes="public"/>
    </person>
    <person id="ped28" depart="28.00" type="ped_pedestrian">
        <personTrip from="-257005614#1" to="397678504#1" modes="public"/>
    </person>
    <person id="ped29" depart="29.00" type="ped_pedestrian">
        <personTrip from="-24152656#1" to="142575656#15" modes="public"/>
    </person>
    <person id="ped30" depart="30.00" type="ped_pedestrian">
        <personTrip from="81096614" to="26991766#1" modes="public"/>
    </person>
    <person id="ped31" depart="31.00" type="ped_pedestrian">
        <personTrip from="207086005" to="320153866" modes="public"/>
    </person>
    <person id="ped32" depart="32.00" type="ped_pedestrian">
        <personTrip from="579026155" to="52081075#6" modes="public"/>
    </person>
    <person id="ped33" depart="33.00" type="ped_pedestrian">
        <personTrip from="-320741898#1" to="-142575657#4" modes="public"/>
    </person>
    <person id="ped34" depart="34.00" type="ped_pedestrian">
        <personTrip from="114025356#1" to="-52081075#8" modes="public"/>
    </person>
    <person id="ped35" depart="35.00" type="ped_pedestrian">
        <personTrip from="-314415495#15" to="579671855#1" modes="public"/>
    </person>
    <person id="ped36" depart="36.00" type="ped_pedestrian">
        <personTrip from="579026211#9" to="114024961#1" modes="public"/>
    </person>
    <person id="ped37" depart="37.00" type="ped_pedestrian">
        <personTrip from="312192825" to="142575686#0" modes="public"/>
    </person>
    <person id="ped38" depart="38.00" type="ped_pedestrian">
        <personTrip from="579269943#3" to="143308542#15" modes="public"/>
    </person>
    <person id="ped39" depart="39.00" type="ped_pedestrian">
        <personTrip from="-503159211" to="-38915290" modes="public"/>
    </person>
    <person id="ped40" depart="40.00" type="ped_pedestrian">
        <personTrip from="230625606#2" to="-461093307" modes="public"/>
    </person>
    <person id="ped41" depart="41.00" type="ped_pedestrian">
        <personTrip from="24152597#5" to="579269898#0" modes="public"/>
    </person>
    <person id="ped42" depart="42.00" type="ped_pedestrian">
        <personTrip from="142575688#13" to="-318210376" modes="public"/>
    </person>
    <person id="ped43" depart="43.00" type="ped_pedestrian">
        <personTrip from="92914055#0" to="149611514#3" modes="public"/>
    </person>
    <person id="ped44" depart="44.00" type="ped_pedestrian">
        <personTrip from="-143308673#0" to="-142575691#0" modes="public"/>
    </person>
    <person id="ped45" depart="45.00" type="ped_pedestrian">
        <personTrip from="-149611511#2" to="26444469#2" modes="public"/>
    </person>
    <person id="ped46" depart="46.00" type="ped_pedestrian">
        <personTrip from="53529255#1" to="142575704#8" modes="public"/>
    </person>
    <person id="ped47" depart="47.00" type="ped_pedestrian">
        <personTrip from="-142575721#0" to="142575656#7" modes="public"/>
    </person>
    <person id="ped48" depart="48.00" type="ped_pedestrian">
        <personTrip from="87849665#0" to="174657426" modes="public"/>
    </person>
    <person id="ped49" depart="49.00" type="ped_pedestrian">
        <personTrip from="70214888#1" to="579026197#0" modes="public"/>
    </person>
    <person id="ped50" depart="50.00" type="ped_pedestrian">
        <personTrip from="-122666828#2" to="397678489" modes="public"/>
    </person>
    <person id="ped51" depart="51.00" type="ped_pedestrian">
        <personTrip from="318210389#0" to="175357593#0" modes="public"/>
    </person>
    <person id="ped52" depart="52.00" type="ped_pedestrian">
        <personTrip from="-52081075#4" to="26991766#5" modes="public"/>
    </person>
    <person id="ped53" depart="53.00" type="ped_pedestrian">
        <personTrip from="-149611514#6" to="142575737#2" modes="public"/>
    </person>
    <person id="ped54" depart="54.00" type="ped_pedestrian">
        <personTrip from="143308527#6" to="579691076#3" modes="public"/>
    </person>
    <person id="ped55" depart="55.00" type="ped_pedestrian">
        <personTrip from="579026211#7" to="-47770431#1" modes="public"/>
    </person>
    <person id="ped56" depart="56.00" type="ped_pedestrian">
        <personTrip from="146511461#5" to="-26444467#4" modes="public"/>
    </person>
    <person id="ped57" depart="57.00" type="ped_pedestrian">
        <personTrip from="579269941#0" to="579026211#0" modes="public"/>
    </person>
    <person id="ped58" depart="58.00" type="ped_pedestrian">
        <personTrip from="-581596946" to="26991690" modes="public"/>
    </person>
    <person id="ped59" depart="59.00" type="ped_pedestrian">
        <personTrip from="259433182#3" to="-24152572#1" modes="public"/>
    </person>
    <person id="ped60" depart="60.00" type="ped_pedestrian">
        <personTrip from="46039050#5" to="180789857#1" modes="public"/>
    </person>
    <person id="ped61" depart="61.00" type="ped_pedestrian">
        <personTrip from="52081116#2" to="174657433#0" modes="public"/>
    </person>
    <person id="ped62" depart="62.00" type="ped_pedestrian">
        <personTrip from="-114024901" to="114285344#0" modes="public"/>
    </person>
    <person id="ped63" depart="63.00" type="ped_pedestrian">
        <personTrip from="-137534616#1" to="579671786#2" modes="public"/>
    </person>
    <person id="ped64" depart="64.00" type="ped_pedestrian">
        <personTrip from="579026213#3" to="578659329#1" modes="public"/>
    </person>
    <person id="ped65" depart="65.00" type="ped_pedestrian">
        <personTrip from="-81639678#0" to="-142575704#4" modes="public"/>
    </person>
    <person id="ped66" depart="66.00" type="ped_pedestrian">
        <personTrip from="579026213#1" to="579671869#2" modes="public"/>
    </person>
    <person id="ped67" depart="67.00" type="ped_pedestrian">
        <personTrip from="-143308562#1" to="143308673#0" modes="public"/>
    </person>
    <person id="ped68" depart="68.00" type="ped_pedestrian">
        <personTrip from="-142575737#2" to="45875465#0" modes="public"/>
    </person>
    <person id="ped69" depart="69.00" type="ped_pedestrian">
        <personTrip from="47770431#1" to="-175357040#1" modes="public"/>
    </person>
    <person id="ped70" depart="70.00" type="ped_pedestrian">
        <personTrip from="143308562#1" to="190083608#3" modes="public"/>
    </person>
    <person id="ped71" depart="71.00" type="ped_pedestrian">
        <personTrip from="-520414189" to="579026211#13" modes="public"/>
    </person>
    <person id="ped72" depart="72.00" type="ped_pedestrian">
        <personTrip from="142575708#1" to="-314415495#18" modes="public"/>
    </person>
    <person id="ped73" depart="73.00" type="ped_pedestrian">
        <personTrip from="180789857#1" to="398770009#0" modes="public"/>
    </person>
    <person id="ped74" depart="74.00" type="ped_pedestrian">
        <personTrip from="-302944175#0" to="114024903#4" modes="public"/>
    </person>
    <person id="ped75" depart="75.00" type="ped_pedestrian">
        <personTrip from="87843218#1" to="31050360#2" modes="public"/>
    </person>
    <person id="ped76" depart="76.00" type="ped_pedestrian">
        <personTrip from="142598712" to="149670384#1" modes="public"/>
    </person>
    <person id="ped77" depart="77.00" type="ped_pedestrian">
        <personTrip from="-156071615#3" to="-320153866" modes="public"/>
    </person>
    <person id="ped78" depart="78.00" type="ped_pedestrian">
        <personTrip from="116342223#1" to="24152660#2" modes="public"/>
    </person>
    <person id="ped79" depart="79.00" type="ped_pedestrian">
        <personTrip from="-326994261#1" to="-318210378#0" modes="public"/>
    </person>
    <person id="ped80" depart="80.00" type="ped_pedestrian">
        <personTrip from="-142598710#1" to="26816413#1" modes="public"/>
    </person>
    <person id="ped81" depart="81.00" type="ped_pedestrian">
        <personTrip from="-320741898#0" to="579269912#0" modes="public"/>
    </person>
    <person id="ped82" depart="82.00" type="ped_pedestrian">
        <personTrip from="579026193" to="-142598710#1" modes="public"/>
    </person>
    <person id="ped83" depart="83.00" type="ped_pedestrian">
        <personTrip from="-354084467#0" to="314415495#3" modes="public"/>
    </person>
    <person id="ped84" depart="84.00" type="ped_pedestrian">
        <personTrip from="-314415495#7" to="-175357597#2" modes="public"/>
    </person>
    <person id="ped85" depart="85.00" type="ped_pedestrian">
        <personTrip from="579671816" to="23925124#0" modes="public"/>
    </person>
    <person id="ped86" depart="86.00" type="ped_pedestrian">
        <personTrip from="143308549#2" to="527170115#3" modes="public"/>
    </person>
    <person id="ped87" depart="87.00" type="ped_pedestrian">
        <personTrip from="540223981#0" to="-26843019#1" modes="public"/>
    </person>
    <person id="ped88" depart="88.00" type="ped_pedestrian">
        <personTrip from="-143482765#0" to="142575728" modes="public"/>
    </person>
    <person id="ped89" depart="89.00" type="ped_pedestrian">
        <personTrip from="142575708#4" to="143308546#2" modes="public"/>
    </person>
    <person id="ped90" depart="90.00" type="ped_pedestrian">
        <personTrip from="397678504#1" to="318210360#0" modes="public"/>
    </person>
    <person id="ped91" depart="91.00" type="ped_pedestrian">
        <personTrip from="81096582#2" to="-143482766#2" modes="public"/>
    </person>
    <person id="ped92" depart="92.00" type="ped_pedestrian">
        <personTrip from="142575688#9" to="116342915" modes="public"/>
    </person>
    <person id="ped93" depart="93.00" type="ped_pedestrian">
        <personTrip from="579026198#0" to="-40089662#1" modes="public"/>
    </person>
    <person id="ped94" depart="94.00" type="ped_pedestrian">
        <personTrip from="-26843019#0" to="143308523#0" modes="public"/>
    </person>
    <person id="ped95" depart="95.00" type="ped_pedestrian">
        <personTrip from="142575704#7" to="-53529457#1" modes="public"/>
    </person>
    <person id="ped96" depart="96.00" type="ped_pedestrian">
        <personTrip from="-40089662#7" to="579671770#3" modes="public"/>
    </person>
    <person id="ped97" depart="97.00" type="ped_pedestrian">
        <personTrip from="143308497#0" to="579026197#1" modes="public"/>
    </person>
    <person id="ped98" depart="98.00" type="ped_pedestrian">
        <personTrip from="190083616#0" to="-142575695#0" modes="public"/>
    </person>
    <person id="ped99" depart="99.00" type="ped_pedestrian">
        <personTrip from="92914055#5" to="578659350#1" modes="public"/>
    </person>
    <person id="ped100" depart="100.00" type="ped_pedestrian">
        <personTrip from="70133621#0" to="579671777" modes="public"/>
    </person>
    <person id="ped101" depart="101.00" type="ped_pedestrian">
        <personTrip from="579026164#1" to="-24214694#5" modes="public"/>
    </person>
    <person id="ped102" depart="102.00" type="ped_pedestrian">
        <personTrip from="143308669" to="-314415495#6" modes="public"/>
    </person>
    <person id="ped103" depart="103.00" type="ped_pedestrian">
        <personTrip from="142575688#5" to="-142575704#7" modes="public"/>
    </person>
    <person id="ped104" depart="104.00" type="ped_pedestrian">
        <personTrip from="142575656#12" to="81096589#1" modes="public"/>
    </person>
    <person id="ped105" depart="105.00" type="ped_pedestrian">
        <personTrip from="-520414189" to="527170115#1" modes="public"/>
    </person>
    <person id="ped106" depart="106.00" type="ped_pedestrian">
        <personTrip from="143308532#2" to="142575707" modes="public"/>
    </person>
    <person id="ped107" depart="107.00" type="ped_pedestrian">
        <personTrip from="579691100#1" to="87843235#0" modes="public"/>
    </person>
    <person id="ped108" depart="108.00" type="ped_pedestrian">
        <personTrip from="20553068#1" to="38507369#0" modes="public"/>
    </person>
    <person id="ped109" depart="109.00" type="ped_pedestrian">
        <personTrip from="-24152572#6" to="-581596941" modes="public"/>
    </person>
    <person id="ped110" depart="110.00" type="ped_pedestrian">
        <personTrip from="70130339#3" to="24152582#0" modes="public"/>
    </person>
    <person id="ped111" depart="111.00" type="ped_pedestrian">
        <personTrip from="180800504#0" to="414563781" modes="public"/>
    </person>
    <person id="ped112" depart="112.00" type="ped_pedestrian">
        <personTrip from="-142575704#2" to="24152597#4" modes="public"/>
    </person>
    <person id="ped113" depart="113.00" type="ped_pedestrian">
        <personTrip from="147859763#3" to="579026172#1" modes="public"/>
    </person>
    <person id="ped114" depart="114.00" type="ped_pedestrian">
        <personTrip from="-24152593#5" to="581596938" modes="public"/>
    </person>
    <person id="ped115" depart="115.00" type="ped_pedestrian">
        <personTrip from="-143308523#3" to="-26816590#0" modes="public"/>
    </person>
    <person id="ped116" depart="116.00" type="ped_pedestrian">
        <personTrip from="24733698#1" to="318210366" modes="public"/>
    </person>
    <person id="ped117" depart="117.00" type="ped_pedestrian">
        <personTrip from="-347935096#0" to="-156071615#0" modes="public"/>
    </person>
    <person id="ped118" depart="118.00" type="ped_pedestrian">
        <personTrip from="579026237#0" to="-38507369#3" modes="public"/>
    </person>
    <person id="ped119" depart="119.00" type="ped_pedestrian">
        <personTrip from="24733697#3" to="26004868#0" modes="public"/>
    </person>
    <person id="ped120" depart="120.00" type="ped_pedestrian">
        <personTrip from="142575704#13" to="24152597#2" modes="public"/>
    </person>
    <person id="ped121" depart="121.00" type="ped_pedestrian">
        <personTrip from="153021553#1" to="579671809#1" modes="public"/>
    </person>
    <person id="ped122" depart="122.00" type="ped_pedestrian">
        <personTrip from="-31100755#1" to="38159999#9" modes="public"/>
    </person>
    <person id="ped123" depart="123.00" type="ped_pedestrian">
        <personTrip from="-356766925#1" to="142575686#0" modes="public"/>
    </person>
    <person id="ped124" depart="124.00" type="ped_pedestrian">
        <personTrip from="318210351" to="-70130297" modes="public"/>
    </person>
    <person id="ped125" depart="125.00" type="ped_pedestrian">
        <personTrip from="114033011" to="415852813" modes="public"/>
    </person>
    <person id="ped126" depart="126.00" type="ped_pedestrian">
        <personTrip from="-143308493#0" to="143308542#14" modes="public"/>
    </person>
    <person id="ped127" depart="127.00" type="ped_pedestrian">
        <personTrip from="92914055#2" to="87849665#0" modes="public"/>
    </person>
    <person id="ped128" depart="128.00" type="ped_pedestrian">
        <personTrip from="-143308493#2" to="-314415495#4" modes="public"/>
    </person>
    <person id="ped129" depart="129.00" type="ped_pedestrian">
        <personTrip from="-520414189" to="579671806#7" modes="public"/>
    </person>
    <person id="ped130" depart="130.00" type="ped_pedestrian">
        <personTrip from="579026218" to="579026214" modes="public"/>
    </person>
    <person id="ped131" depart="131.00" type="ped_pedestrian">
        <personTrip from="140162595" to="-24152593#6" modes="public"/>
    </person>
    <person id="ped132" depart="132.00" type="ped_pedestrian">
        <personTrip from="578659338#2" to="347935096#0" modes="public"/>
    </person>
    <person id="ped133" depart="133.00" type="ped_pedestrian">
        <personTrip from="25944590#2" to="81096604" modes="public"/>
    </person>
    <person id="ped134" depart="134.00" type="ped_pedestrian">
        <personTrip from="312192817" to="-115227681" modes="public"/>
    </person>
    <person id="ped135" depart="135.00" type="ped_pedestrian">
        <personTrip from="55652793#0" to="-581596948" modes="public"/>
    </person>
    <person id="ped136" depart="136.00" type="ped_pedestrian">
        <personTrip from="31344738#2" to="579671836#0" modes="public"/>
    </person>
    <person id="ped137" depart="137.00" type="ped_pedestrian">
        <personTrip from="-187122892#13" to="-149670370" modes="public"/>
    </person>
    <person id="ped138" depart="138.00" type="ped_pedestrian">
        <personTrip from="-147859765#0" to="204721579#3" modes="public"/>
    </person>
    <person id="ped139" depart="139.00" type="ped_pedestrian">
        <personTrip from="-53529255#1" to="257131020" modes="public"/>
    </person>
    <person id="ped140" depart="140.00" type="ped_pedestrian">
        <personTrip from="382647882" to="-31050360#2" modes="public"/>
    </person>
    <person id="ped141" depart="141.00" type="ped_pedestrian">
        <personTrip from="26816766#0" to="-503159209" modes="public"/>
    </person>
    <person id="ped142" depart="142.00" type="ped_pedestrian">
        <personTrip from="143308686" to="579269912#0" modes="public"/>
    </person>
    <person id="ped143" depart="143.00" type="ped_pedestrian">
        <personTrip from="579026161#4" to="-143308673#5" modes="public"/>
    </person>
    <person id="ped144" depart="144.00" type="ped_pedestrian">
        <personTrip from="142575708#4" to="-53529416#0" modes="public"/>
    </person>
    <person id="ped145" depart="145.00" type="ped_pedestrian">
        <personTrip from="-114024904" to="503159211" modes="public"/>
    </person>
    <person id="ped146" depart="146.00" type="ped_pedestrian">
        <personTrip from="26843019#3" to="-45875465#0" modes="public"/>
    </person>
    <person id="ped147" depart="147.00" type="ped_pedestrian">
        <personTrip from="40636828#1" to="190928926#0" modes="public"/>
    </person>
    <person id="ped148" depart="148.00" type="ped_pedestrian">
        <personTrip from="142575718#1" to="-116342915" modes="public"/>
    </person>
    <person id="ped149" depart="149.00" type="ped_pedestrian">
        <personTrip from="-143308505#1" to="579026222#0" modes="public"/>
    </person>
    <person id="ped150" depart="150.00" type="ped_pedestrian">
        <personTrip from="579269910#1" to="187122892#14" modes="public"/>
    </person>
    <person id="ped151" depart="151.00" type="ped_pedestrian">
        <personTrip from="578659339#1" to="24152593#8" modes="public"/>
    </person>
    <person id="ped152" depart="152.00" type="ped_pedestrian">
        <personTrip from="-23925119#1" to="-175355421" modes="public"/>
    </person>
    <person id="ped153" depart="153.00" type="ped_pedestrian">
        <personTrip from="10735918#0" to="579269898#3" modes="public"/>
    </person>
    <person id="ped154" depart="154.00" type="ped_pedestrian">
        <personTrip from="53529416#0" to="579026197#0" modes="public"/>
    </person>
    <person id="ped155" depart="155.00" type="ped_pedestrian">
        <personTrip from="579269898#2" to="-314415495#12" modes="public"/>
    </person>
    <person id="ped156" depart="156.00" type="ped_pedestrian">
        <personTrip from="-40089662#6" to="-146511461#6" modes="public"/>
    </person>
    <person id="ped157" depart="157.00" type="ped_pedestrian">
        <personTrip from="521731431" to="579026225#1" modes="public"/>
    </person>
    <person id="ped158" depart="158.00" type="ped_pedestrian">
        <personTrip from="142575691#1" to="26004966#1" modes="public"/>
    </person>
    <person id="ped159" depart="159.00" type="ped_pedestrian">
        <personTrip from="-24152572#5" to="579671786#4" modes="public"/>
    </person>
    <person id="ped160" depart="160.00" type="ped_pedestrian">
        <personTrip from="579026202#3" to="71028777#7" modes="public"/>
    </person>
    <person id="ped161" depart="161.00" type="ped_pedestrian">
        <personTrip from="540388571" to="579026219#1" modes="public"/>
    </person>
    <person id="ped162" depart="162.00" type="ped_pedestrian">
        <personTrip from="-142575655#9" to="40191607#1" modes="public"/>
    </person>
    <person id="ped163" depart="163.00" type="ped_pedestrian">
        <personTrip from="115092088#1" to="579671806#10" modes="public"/>
    </person>
    <person id="ped164" depart="164.00" type="ped_pedestrian">
        <personTrip from="53529600#2" to="579026202#1" modes="public"/>
    </person>
    <person id="ped165" depart="165.00" type="ped_pedestrian">
        <personTrip from="540388571" to="-52081075#4" modes="public"/>
    </person>
    <person id="ped166" depart="166.00" type="ped_pedestrian">
        <personTrip from="53021671" to="-147859765#3" modes="public"/>
    </person>
    <person id="ped167" depart="167.00" type="ped_pedestrian">
        <personTrip from="579026211#13" to="579026190" modes="public"/>
    </person>
    <person id="ped168" depart="168.00" type="ped_pedestrian">
        <personTrip from="-318210386#2" to="543699379#1" modes="public"/>
    </person>
    <person id="ped169" depart="169.00" type="ped_pedestrian">
        <personTrip from="143308542#4" to="-73058506#0" modes="public"/>
    </person>
    <person id="ped170" depart="170.00" type="ped_pedestrian">
        <personTrip from="53529411#0" to="-320741895#2" modes="public"/>
    </person>
    <person id="ped171" depart="171.00" type="ped_pedestrian">
        <personTrip from="-142575655#6" to="-26991766#1" modes="public"/>
    </person>
    <person id="ped172" depart="172.00" type="ped_pedestrian">
        <personTrip from="114355960#1" to="579026202#2" modes="public"/>
    </person>
    <person id="ped173" depart="173.00" type="ped_pedestrian">
        <personTrip from="70130303" to="-53529476#1" modes="public"/>
    </person>
    <person id="ped174" depart="174.00" type="ped_pedestrian">
        <personTrip from="26991766#6" to="142575688#13" modes="public"/>
    </person>
    <person id="ped175" depart="175.00" type="ped_pedestrian">
        <personTrip from="8025704#0" to="175357591#0" modes="public"/>
    </person>
    <person id="ped176" depart="176.00" type="ped_pedestrian">
        <personTrip from="579671836#1" to="-149670370" modes="public"/>
    </person>
    <person id="ped177" depart="177.00" type="ped_pedestrian">
        <personTrip from="70138930" to="-26444467#4" modes="public"/>
    </person>
    <person id="ped178" depart="178.00" type="ped_pedestrian">
        <personTrip from="581596943" to="-52080655#2" modes="public"/>
    </person>
    <person id="ped179" depart="179.00" type="ped_pedestrian">
        <personTrip from="-147859765#5" to="142575737#2" modes="public"/>
    </person>
    <person id="ped180" depart="180.00" type="ped_pedestrian">
        <personTrip from="397678502#2" to="114024906" modes="public"/>
    </person>
    <person id="ped181" depart="181.00" type="ped_pedestrian">
        <personTrip from="257131026#0" to="149611514#8" modes="public"/>
    </person>
    <person id="ped182" depart="182.00" type="ped_pedestrian">
        <personTrip from="142575659#2" to="24152572#1" modes="public"/>
    </person>
    <person id="ped183" depart="183.00" type="ped_pedestrian">
        <personTrip from="-411478097" to="357043348#1" modes="public"/>
    </person>
    <person id="ped184" depart="184.00" type="ped_pedestrian">
        <personTrip from="-114024903#2" to="579671773#5" modes="public"/>
    </person>
    <person id="ped185" depart="185.00" type="ped_pedestrian">
        <personTrip from="175357597#2" to="38915290" modes="public"/>
    </person>
    <person id="ped186" depart="186.00" type="ped_pedestrian">
        <personTrip from="40636828#2" to="314415495#7" modes="public"/>
    </person>
    <person id="ped187" depart="187.00" type="ped_pedestrian">
        <personTrip from="133858467#2" to="-142575737#4" modes="public"/>
    </person>
    <person id="ped188" depart="188.00" type="ped_pedestrian">
        <personTrip from="313964778#1" to="114949101#1" modes="public"/>
    </person>
    <person id="ped189" depart="189.00" type="ped_pedestrian">
        <personTrip from="114024906" to="579026163#4" modes="public"/>
    </person>
    <person id="ped190" depart="190.00" type="ped_pedestrian">
        <personTrip from="38915290" to="-70214888#1" modes="public"/>
    </person>
    <person id="ped191" depart="191.00" type="ped_pedestrian">
        <personTrip from="114024899" to="142575692#3" modes="public"/>
    </person>
    <person id="ped192" depart="192.00" type="ped_pedestrian">
        <personTrip from="142575688#9" to="-581145190" modes="public"/>
    </person>
    <person id="ped193" depart="193.00" type="ped_pedestrian">
        <personTrip from="-175355421" to="142575704#3" modes="public"/>
    </person>
    <person id="ped194" depart="194.00" type="ped_pedestrian">
        <personTrip from="579671842#1" to="318210374" modes="public"/>
    </person>
    <person id="ped195" depart="195.00" type="ped_pedestrian">
        <personTrip from="579269908" to="259466417#2" modes="public"/>
    </person>
    <person id="ped196" depart="196.00" type="ped_pedestrian">
        <personTrip from="-70214888#3" to="187122892#9" modes="public"/>
    </person>
    <person id="ped197" depart="197.00" type="ped_pedestrian">
        <personTrip from="-114024901" to="-573938814" modes="public"/>
    </person>