<?xml version="1.0" encoding="UTF-8"?>

<!-- generated on 05/02/19 16:58:16 by Eclipse SUMO duarouter Version v1_0_1+0593-c54b143026
<configuration xmlns:xsi="http://www.w3.org/2001/XMLSchema-instance" xsi:noNamespaceSchemaLocation="http://sumo.dlr.de/xsd/duarouterConfiguration.xsd">

    <input>
        <net-file value="osm.net.xml"/>
        <route-files value="osm.passenger.trips.xml"/>
    </input>

    <output>
        <output-file value="osm.passenger.rou.xml"/>
        <alternatives-output value="osm.passenger.rou.alt.xml"/>
    </output>

    <time>
        <begin value="0"/>
        <end value="3600.0"/>
    </time>

    <report>
        <no-warnings value="true"/>
        <ignore-errors value="true"/>
        <no-step-log value="true"/>
    </report>

</configuration>
-->

<routes xmlns:xsi="http://www.w3.org/2001/XMLSchema-instance" xsi:noNamespaceSchemaLocation="http://sumo.dlr.de/xsd/routes_file.xsd">
    <vType id="veh_passenger" vClass="passenger"/>
    <vehicle id="veh0" type="veh_passenger" depart="0.00" departLane="best">
        <route edges="-23925122 23925119#1 40191606#2 40191606#3 414563781 318210357#0 72230304#1 461514282#0 461514282#1 204721578#0 204721578#1 153021553#1 318210353 318210351 207086005 318210360#0 27087586#1 318210374 -187122892#14 -187122892#13 -187122892#12 -187122892#10"/>
    </vehicle>
    <vehicle id="veh1" type="veh_passenger" depart="2.60" departLane="best">
        <route edges="190083608#3 318210369#1 318210366 318210367#1 318210364 318210371#1 142575667#0 48858191#1 48858191#3 318210383#0 52243916#1 52243916#2 -43660343#1 -43660343#0 10735918#0 10735918#1 204721579#2 204721579#3 204721579#4 204721579#6 204721579#7 204721579#8 153021549#0 153021549#1 153021549#2 149611514#2 149611514#3 149611514#4 149611514#5 149611514#6 149611514#7 149611514#8"/>
    </vehicle>
    <vehicle id="veh3" type="veh_passenger" depart="7.80" departLane="best">
        <route edges="142575655#5 142575655#6 -52081075#7 -52081075#6 -52081075#4 -52081075#3 -52081075#2 -142575674#4 -142575674#1 -142575674#0 -142575656#10 -142575656#9 -142575656#8"/>
    </vehicle>
    <vehicle id="veh4" type="veh_passenger" depart="10.40" departLane="best">
        <route edges="-149611526#0 149611526#0 40191606#0 40191606#2 40191606#3 414563781 318210357#0 206889086#1 152839448 541676219 318210389#0 81639675#1 81639675#2 143308555#1 143308555#2 143308555#3 143308546#1 143308546#2 143308546#3 143308546#4 143308546#5 143308546#6 143308546#7 143308546#8 52081075#0 52081075#3 52081075#4 52081075#6 52081075#7 142575655#7 142575655#8 142575655#9 142575693#0"/>
    </vehicle>
    <vehicle id="veh5" type="veh_passenger" depart="13.00" departLane="best">
        <route edges="-142575656#12 -142575656#11 -142575656#10 -142575656#9 -142575656#8 -142575656#7 -142575704#1 -142575704#0 143308542#14 143308542#15 143308542#16 143308542#17 143308552#1 143308549#1 143308549#2 52036180#1 52036180#2 52036180#4 -45875465#0 152839428 24152326#0 24152326#1 23925124#0 23925124#1 23925124#2 149611526#0 -149611526#0"/>
    </vehicle>
    <vehicle id="veh7" type="veh_passenger" depart="18.20" departLane="best">
        <route edges="-152839428 45875465#0 206889086#1 152839448 541676219 318210389#0 81639675#1 81639675#2 143308555#1 143308555#2 143308555#3 143308546#1 143308546#2 143308546#3 143308546#4 143308546#5 143308546#6 143308546#7 143308546#8 143308546#9 143308546#10 143308546#11 143308546#12 143308546#13 143308546#14 143308546#15 143308546#16 143308546#17 143308546#18 143308546#19 143308546#20 143308546#21 143308546#23 143308546#24 143308546#25 143308546#26 143308542#0"/>
    </vehicle>
    <vehicle id="veh9" type="veh_passenger" depart="23.40" departLane="best">
        <route edges="259433185 -259433185 52081116#0 52081116#1 52081116#2 52081116#3 52081116#4 52081116#7 70130339#2 70130339#3 118262353#2 -38915290 -318210378#5 -318210378#4 -318210378#3 -318210378#2 -318210378#0 -318210376 -318210377#1 -318210377#0 -31050360#2 -31050360#1 -31050360#0 143308552#1 -318210361#3 -318210361#0 -314415495#20 -314415495#18 -314415495#17 -314415495#15 -314415495#14 -314415495#13 -314415495#12 -314415495#11 -314415495#10 -314415495#9 -314415495#8 -314415495#7 -314415495#6 -314415495#5 -314415495#4 -314415495#3 -314415495#1 -314415495#0 48858192#1 318210388#0 -318210386#2 -81639678#0 -375685718#1 -375685718#0 143308523#0 143308523#1 143308523#2 143308523#3 143308523#4 143308523#5 143308523#6 143308523#7 143308523#8 169076559"/>
    </vehicle>
    <vehicle id="veh11" type="veh_passenger" depart="28.60" departLane="best">
        <route edges="-142575690#2 -142575690#0 143308562#3 46039050#4 46039050#5 46039050#6 143308542#0 143308542#1 143308542#3 143308542#4 143308542#5 143308542#6 143308542#7 142575691#0 142575691#1 142575691#2 142575691#5 -142575691#5"/>
    </vehicle>
    <vehicle id="veh12" type="veh_passenger" depart="31.20" departLane="best">
        <route edges="318210351 207086005 318210360#0 152839434#2 43660343#0 43660343#1 48298278#0 48858192#1 318210388#0 48858193#1 -578917008 -318210371#0 142575678#0 142575678#1 38160000 -172013798#3 -147859765#6 -147859765#5 -147859765#3 -147859765#2 -147859765#1 -147859765#0 -142575691#5 -142575691#2 -142575691#1 -142575691#0 143308542#8"/>
    </vehicle>
    <vehicle id="veh13" type="veh_passenger" depart="33.81" departLane="best">
        <route edges="259433185 -259433185 52081116#0 52081116#1 52081116#2 52081116#3 52081116#4 52081116#7 70130339#2 70130339#3 118262353#2 -38915290 -318210378#5 -318210378#4 -318210378#3 -318210378#2 -318210378#0 -318210376 -318210377#1 -318210377#0 -31050360#2 -31050360#1 -31050360#0 143308546#1 143308546#2 143308546#3 143308546#4 143308546#5 143308546#6 143308546#7 143308546#8 -142575674#4 -142575674#1 -142575674#0 142575656#11 142575656#12 142575656#14 142575656#15 147859763#1 147859763#2 147859763#3 147859763#4 147859763#5 147859763#6 147859763#8 147859763#9 147859763#10 172014854#0 172014854#1 172014854#2 190083608#1"/>
    </vehicle>
    <vehicle id="veh14" type="veh_passenger" depart="36.41" departLane="best">
        <route edges="142575701#0 -142575701#0 -318210378#0 -318210376 -318210377#1 -318210377#0 -31050360#2 -31050360#1 -31050360#0 143308552#1 -318210361#3 -318210361#0 -314415495#20 -314415495#18 -314415495#17 -314415495#15 -314415495#14 -314415495#13 -314415495#12 -314415495#11 -314415495#10 -314415495#9 -314415495#8 -314415495#7 -314415495#6 -314415495#5 -314415495#4 -314415495#3 -314415495#1 -314415495#0 52243916#1 581145190"/>
    </vehicle>
    <vehicle id="veh15" type="veh_passenger" depart="39.01" departLane="best">
        <route edges="-52080655#2 52080655#0 318210394#0 318210394#1 142575677#1 142575677#2 142575677#3 -142575710#5 -142575710#4 -142575710#3 -142575710#2 143308493#0"/>
    </vehicle>
    <vehicle id="veh16" type="veh_passenger" depart="41.61" departLane="best">
        <route edges="313964778#0 313964778#1 -52081075#9 -52081075#8 142575655#7 142575655#8 142575655#9 142575693#0 142575693#1 142575693#2 142575693#3 142575693#4 142575693#5 143308546#19 143308546#20 143308546#21"/>
    </vehicle>
    <vehicle id="veh17" type="veh_passenger" depart="44.21" departLane="best">
        <route edges="318210369#1 318210366 318210367#1 142575678#0 142575678#1 -38159999#12 -38159999#11 -38159999#10 -38159999#9 -38159999#8 -142575704#8 -142575704#7 -142575704#6 -142575704#4 -142575704#3 -142575704#2 -142575704#1 -142575704#0 143308542#14 143308542#15 143308542#16 143308542#17 31050360#0 31050360#1 31050360#2 318210377#0 318210377#1 318210376 318210378#0 143308527#0 143308527#1 143308527#2"/>
    </vehicle>
    <vehicle id="veh18" type="veh_passenger" depart="46.81" departLane="best">
        <route edges="153021553#1 318210353 318210351 207086005 318210360#0 152839434#2 43660343#0 43660343#1 48298278#0 81639685#0 314415495#1 314415495#3 314415495#4 314415495#5 314415495#6 314415495#7 314415495#8 314415495#9 314415495#10 314415495#11 314415495#12 314415495#13 314415495#14 314415495#15 142575661#0 142575661#1 -142575661#1"/>
    </vehicle>
    <vehicle id="veh19" type="veh_passenger" depart="49.41" departLane="best">
        <route edges="-172013798#3 26991766#0 26991766#1 26991766#2 26991766#5 26991766#6 26991766#7 26991766#8 26991766#9 26991766#10 314415495#11 314415495#12 -314415495#12"/>
    </vehicle>
    <vehicle id="veh20" type="veh_passenger" depart="52.01" departLane="best">
        <route edges="-142575688#10 -142575688#9 -142575688#8 -142575688#7 -142575688#6 -142575688#5 -142575688#3 -142575688#2 -142575688#1 -142575688#0 142575674#2 143308542#11 143308542#12 143308542#13 143308542#14 143308542#15 143308542#16 143308542#17 143308552#1 143308549#1 143308549#2 52036180#1 52036180#2 52036180#4 -45875465#0 152839428 -187123053#1 -187123053#0"/>
    </vehicle>
    <vehicle id="veh21" type="veh_passenger" depart="54.61" departLane="best">
        <route edges="-142575691#5 142575691#5 -142575656#15 -142575656#14 -142575656#12 -142575656#11 -142575656#10 -142575656#9 -142575656#8 -142575656#7 142575704#2 142575704#3 142575704#4 26991766#5 26991766#6 -26991766#6"/>
    </vehicle>
    <vehicle id="veh22" type="veh_passenger" depart="57.21" departLane="best">
        <route edges="143308549#2 142575672#2 -142575672#2 81639675#1 81639675#2 143308555#1 143308555#2 143308555#3 143308546#1 143308546#2 143308546#3 143308546#4 143308546#5 143308546#6 143308546#7 143308546#8 52081075#0 -52081075#2"/>
    </vehicle>
    <vehicle id="veh24" type="veh_passenger" depart="62.41" departLane="best">
        <route edges="-23913524#6 -23913524#5 -23913524#3 -23913524#2 -23913524#1 -23913524#0 137534616#0 137534616#1 137534616#2 137534616#3 137534616#4 166142951#0 166142951#1 149611526#0 40191606#0 40191606#2 40191606#3 414563781 318210357#0 206889086#1 152839448 541676219 318210389#0 81639675#1 81639675#2 143308555#1 143308555#2 143308555#3 143308546#1 143308546#2 143308546#3 143308546#4 143308546#5 143308546#6 143308546#7 143308546#8 52081075#0 52081075#3 52081075#4 52081075#6 52081075#7 52081075#8 52081075#9 412992929#0 412992929#1"/>
    </vehicle>
    <vehicle id="veh26" type="veh_passenger" depart="67.61" departLane="best">
        <route edges="-143308527#5 143308527#5 143308527#6 143308527#7 -318210394#0 -52080655#2 52036180#1 52036180#2 52036180#4 -45875465#0 152839428 -187123053#1 187123053#1"/>
    </vehicle>
    <vehicle id="veh27" type="veh_passenger" depart="70.21" departLane="best">
        <route edges="-143308523#5 -143308523#4 -143308523#3 -143308523#2 -143308523#1 -143308523#0 375685718#0 375685718#1 382647882 81639678#1 48858193#1 -578917008 -142575704#14 -142575704#13 -142575704#12 -142575704#11 -142575704#10 -142575704#8 -142575704#7 -142575704#6 -142575704#4 -142575704#3 -142575704#2 142575656#7 142575656#8 142575656#9 142575656#10 142575674#0 142575674#1 142575674#2 143308546#9 143308546#10 143308546#11 -24733698#1 71028777#1 71028777#3 71028777#4 71028777#5 71028777#7 -71028777#7"/>
    </vehicle>
    <vehicle id="veh28" type="veh_passenger" depart="72.81" departLane="best">
        <route edges="143308493#0 143308493#1 143308493#2 143308493#3 143308546#5 143308546#6 143308546#7 143308546#8 143308542#11 143308542#12 143308542#13 143308542#14 143308542#15 143308542#16 143308542#17 143308552#1 143308549#1 143308549#2 52036180#1 52036180#2 52036180#4 -45875465#0 152839428 24152326#0 24152326#1 23925124#0 23925124#1 23925124#2 149611526#0"/>
    </vehicle>
    <vehicle id="veh29" type="veh_passenger" depart="75.41" departLane="best">
        <route edges="314415495#5 -314415495#5 -314415495#4 -314415495#3 -314415495#1 -314415495#0 52243916#1 52243916#2 -43660343#1 -43660343#0 10735918#0 10735918#1 204721579#2 204721579#3 204721579#4 204721579#6 204721579#7 204721579#8 153021549#0 153021549#1 153021549#2 153021549#3 153021549#4 153021549#5 40191606#0 -23925119#1 23925119#1"/>
    </vehicle>
    <vehicle id="veh30" type="veh_passenger" depart="78.01" departLane="best">
        <route edges="-172014854#0 -147859763#10 -147859763#9 -147859763#8 -147859763#6 -147859763#5 -147859763#4 -147859763#3 -147859763#2 -147859763#1 -142575656#15 -142575656#14 -142575656#12 -142575656#11 142575674#0 142575674#1 142575674#2 52081075#0 52081075#3 52081075#4 52081075#6 52081075#7 142575655#7 142575655#8 142575655#9 -143308521#7 -143308521#6 -143308521#5 -143308521#4 -143308521#3 142575657#0 142575657#1 -142575657#1"/>
    </vehicle>
    <vehicle id="veh31" type="veh_passenger" depart="80.61" departLane="best">
        <route edges="-314415495#3 -314415495#1 -314415495#0 48858192#1 318210388#0 48858193#1 -578917008 -318210371#0 -318210362 -318210367#0 -318210369#1 -318210369#0 -190083608#2 -190083608#1 -190083608#0 320741895#0 -190083618#2 -24214694#5 -24214694#4"/>
    </vehicle>
    <vehicle id="veh32" type="veh_passenger" depart="83.21" departLane="best">
        <route edges="-149611514#8 -23913524#3 -23913524#2 -23913524#1 -23913524#0 137534616#0 137534616#1 137534616#2 137534616#3 137534616#4 166142951#0 166142951#1 149611526#0 40191606#0 40191606#2 40191606#3 414563781 318210357#0 206889086#1 152839448 541676219 318210389#0 81639675#1 81639675#2 143308555#1 143308555#2 143308555#3 143308546#1 143308546#2 143308546#3 143308546#4 143308546#5 143308546#6 143308546#7 143308546#8 143308546#9 143308546#10 143308546#11 143308546#12 143308546#13 143308546#14 143308546#15 143308546#16 143308546#17 143308546#18 143308546#19 143308546#20 143308546#21 143308546#23 143308546#24 143308546#25 143308546#26 143308532#0 143308532#2 46039050#4"/>
    </vehicle>
    <vehicle id="veh33" type="veh_passenger" depart="85.81" departLane="best">
        <route edges="318210389#0 81639675#1 81639675#2 143308555#1 143308555#2 143308555#3 31050360#0 31050360#1 31050360#2 318210377#0 318210377#1 318210376 318210378#0 -318210378#0"/>
    </vehicle>
    <vehicle id="veh34" type="veh_passenger" depart="88.41" departLane="best">
        <route edges="146511461#3 -187122892#1 -149611511#2 -149611511#1 -166142951#1 -166142951#0 -137534616#4 -137534616#3 -137534616#2 137534616#2"/>
    </vehicle>
    <vehicle id="veh35" type="veh_passenger" depart="91.01" departLane="best">
        <route edges="-23913524#6 -23913524#5 -23913524#3 -23913524#2 -23913524#1 -23913524#0 137534616#0 137534616#1 137534616#2 137534616#3 137534616#4 166142951#0 166142951#1 149611526#0 40191606#0 40191606#2 40191606#3 414563781 318210357#0 206889086#1 152839448 541676219 318210389#0 81639675#1 81639675#2 143308555#1 143308555#2 143308555#3 143308546#1 143308546#2 143308546#3 143308546#4 143308546#5 143308546#6 143308546#7 143308546#8 143308546#9 143308546#10 143308546#11 143308546#12 143308546#13 143308546#14 143308546#15 143308546#16 143308546#17 143308546#18 143308546#19 143308546#20 143308546#21 143308546#23 143308546#24 143308546#25 143308546#26 143308587#0 143308587#1 24214694#3 24214694#4 24214694#5 190083618#0 -283317455#1 -190083616#1 -190083616#0"/>
    </vehicle>
    <vehicle id="veh36" type="veh_passenger" depart="93.61" departLane="best">
        <route edges="143308505#1 -143308505#1 -143308505#0 -142575656#12 -142575656#11 -142575656#10 -142575656#9 -142575656#8 -142575656#7 -142575704#1 -142575704#0 143308542#14 143308542#15 143308542#16 143308542#17 143308552#1 143308549#1 143308549#2 52036180#1 52036180#2 52036180#4 -45875465#0 152839428 24152326#0 24152326#1 23925124#0 -23925124#0"/>
    </vehicle>
    <vehicle id="veh37" type="veh_passenger" depart="96.22" departLane="best">
        <route edges="143308527#0 -143308527#0 -318210378#0 -318210376 -318210377#1 -318210377#0 -31050360#2 -31050360#1 -31050360#0 143308552#1 -318210361#3 -318210361#0 -314415495#20 -314415495#18 -314415495#17 -314415495#15 -314415495#14 -314415495#13 -314415495#12 -314415495#11 -314415495#10 -314415495#9 -314415495#8 38159999#1"/>
    </vehicle>
    <vehicle id="veh38" type="veh_passenger" depart="98.82" departLane="best">
        <route edges="81639675#2 143308555#1 143308555#2 143308555#3 143308546#1 143308546#2 143308546#3 143308546#4 143308546#5 143308546#6 143308546#7 143308546#8 143308546#9 143308546#10 143308546#11 -24733698#1 71028777#1 71028777#3 71028777#4 71028777#5 71028777#7 142575693#3 142575693#4"/>
    </vehicle>
    <vehicle id="veh39" type="veh_passenger" depart="101.42" departLane="best">
        <route edges="-142575689 -52081075#3 -52081075#2 143308542#11 143308542#12 143308542#13 143308542#14 143308542#15 143308542#16 143308542#17 143308552#1 143308549#1 143308549#2 142575672#2 318210373#0 318210373#1 -142575661#2"/>
    </vehicle>
    <vehicle id="veh40" type="veh_passenger" depart="104.02" departLane="best">
        <route edges="-142575695#2 -142575695#1 -142575695#0 -142575672#2 81639675#1 81639675#2 143308555#1 143308555#2 143308555#3 143308546#1 143308546#2 143308546#3 143308546#4 143308546#5 143308546#6 143308546#7"/>
    </vehicle>
    <vehicle id="veh41" type="veh_passenger" depart="106.62" departLane="best">
        <route edges="257072321#3 257072321#4 257072321#5 257072321#6 257072321#7 257072321#8 142575655#4 142575655#5 142575655#6 -52081075#7 -52081075#6 -52081075#4 -52081075#3 -52081075#2 -142575674#4 -142575674#1 -142575674#0 -142575656#10 -142575656#9 -142575656#8 -142575656#7 -142575656#6 142575656#6"/>
    </vehicle>
    <vehicle id="veh43" type="veh_passenger" depart="111.82" departLane="best">
        <route edges="8025704#0 118262353#2 -38915290 -318210378#5 -318210378#4 -318210378#3 -318210378#2 -318210378#0 -318210376 -318210377#1 -318210377#0 -31050360#2 -31050360#1 -31050360#0 143308546#1 143308546#2 143308546#3 143308546#4 143308546#5 143308546#6 143308546#7 143308546#8 143308542#11 143308542#12 143308542#13 142575704#0"/>
    </vehicle>
    <vehicle id="veh44" type="veh_passenger" depart="114.42" departLane="best">
        <route edges="541676219 318210389#0 81639675#1 81639675#2 143308555#1 143308555#2 143308555#3 143308546#1 143308546#2 143308546#3 143308546#4 143308546#5 143308546#6 143308546#7 143308546#8 -142575674#4 -142575674#1 -142575674#0 142575656#11 142575656#12 142575656#14 142575656#15 147859766 147859765#1 147859765#2 147859765#3 147859765#5 147859765#6 172013798#3 38160001#0 38160001#1 318210367#1"/>
    </vehicle>
    <vehicle id="veh45" type="veh_passenger" depart="117.02" departLane="best">
        <route edges="-140964924#1 -140964924#0 137534616#3 137534616#4 166142951#0 166142951#1 149611511#1 149611511#2 187122892#1 187122892#4 187122892#5 187122892#6 187122892#7 187122892#8 187122892#9 187122892#10 187122892#12 187122892#13 187122892#14"/>
    </vehicle>
    <vehicle id="veh46" type="veh_passenger" depart="119.62" departLane="best">
        <route edges="149611524#1 -149611524#1 137534616#4 166142951#0 166142951#1 149611526#0 40191606#0 40191606#2 40191606#3 414563781 318210357#0 206889086#1 152839448 541676219 318210389#0 81639675#1 81639675#2 -318210361#3 -318210361#0 -314415495#20 -314415495#18 142575656#0 142575656#1 142575656#3 142575656#4 142575656#5 142575656#6 142575704#2 142575704#3"/>
    </vehicle>
    <vehicle id="veh47" type="veh_passenger" depart="122.22" departLane="best">
        <route edges="-23913524#6 -23913524#5 -23913524#3 -23913524#2 -23913524#1 -23913524#0 137534616#0 137534616#1 137534616#2 137534616#3 137534616#4 166142951#0 166142951#1 149611526#0 40191606#0 40191606#2 40191606#3 414563781 318210357#0 206889086#1 152839448 541676219 318210389#0 81639675#1 81639675#2 143308555#1 143308555#2 143308555#3 143308546#1 143308546#2 143308546#3 143308546#4 143308546#5 143308546#6 143308546#7 143308546#8 143308546#9 143308546#10 143308546#11 143308546#12 143308546#13 143308546#14 143308546#15 143308546#16 143308546#17 143308546#18 143308546#19 143308546#20 143308546#21 143308546#23 143308546#24 143308546#25 143308546#26 143308587#0 143308587#1"/>
    </vehicle>
    <vehicle id="veh48" type="veh_passenger" depart="124.82" departLane="best">
        <route edges="-142575695#2 -142575695#1 -142575695#0 -142575672#2 81639675#1 81639675#2 143308555#1 143308555#2 143308555#3 143308546#1 143308546#2 143308546#3 143308546#4 143308546#5 143308546#6 143308546#7 143308546#8 143308546#9 143308546#10 143308546#11 143308546#12 143308546#13 143308546#14 143308546#15 143308546#16 143308546#17 143308546#18 143308546#19 143308546#20 143308546#21 143308546#23 143308546#24 143308546#25 143308546#26 143308532#0 143308532#2 143308562#5 142575658#1"/>
    </vehicle>
    <vehicle id="veh49" type="veh_passenger" depart="127.42" departLane="best">
        <route edges="142575661#0 142575661#1 142575661#2 -318210373#1 -318210373#0 -142575672#2 52036180#1 52036180#2"/>
    </vehicle>
    <vehicle id="veh50" type="veh_passenger" depart="130.02" departLane="best">
        <route edges="318210388#0 48858191#1 48858191#3 318210383#0 52243916#1 52243916#2 -43660343#1 -43660343#0 10735918#0 10735918#1 204721579#2 204721579#3 204721579#4 204721579#6 204721579#7 204721579#8 153021549#0 153021549#1 153021549#2 153021549#3 153021549#4 153021549#5 40191606#0 -23925119#1 -23925119#0 -23925124#0"/>
    </vehicle>
    <vehicle id="veh51" type="veh_passenger" depart="132.62" departLane="best">
        <route edges="38160000 -172013798#3 -147859765#6 -147859765#5 -147859765#3 -147859765#2 -147859765#1 -147859765#0 -142575691#5 -142575691#2 -142575691#1 -142575691#0 143308542#8 143308542#9 143308542#10 143308542#11 143308542#12 143308542#13 143308542#14 143308542#15 143308542#16 143308542#17 31050360#0 31050360#1 31050360#2 318210377#0 318210377#1 318210376 318210378#0 318210378#2"/>
    </vehicle>
    <vehicle id="veh52" type="veh_passenger" depart="135.22" departLane="best">
        <route edges="-26991766#7 -26991766#6 -26991766#5 -142575704#4 -142575704#3 -142575704#2 142575656#7 142575656#8 142575656#9 142575656#10 142575674#0 142575674#1 142575674#2 143308546#9 143308546#10 143308546#11 143308546#12 143308546#13 143308546#14 143308546#15 143308546#16 143308546#17 143308546#18 143308546#19 143308546#20 143308546#21 143308546#23 143308546#24 143308546#25 143308546#26 143308532#0 143308532#2 143308562#5"/>
    </vehicle>
    <vehicle id="veh53" type="veh_passenger" depart="137.82" departLane="best">
        <route edges="143308542#8 143308542#9 143308542#10 143308542#11 143308542#12 143308542#13 143308542#14 143308542#15 143308542#16 143308542#17 31050360#0 31050360#1 31050360#2 318210377#0 318210377#1 318210376 318210378#0 143308527#0 -143308527#0"/>
    </vehicle>
    <vehicle id="veh54" type="veh_passenger" depart="140.42" departLane="best">
        <route edges="207086005 318210360#0 152839434#2 43660343#0 43660343#1 48298278#0 48858192#1 318210388#0 48858193#1 -578917008 -142575704#14 -142575704#13 -142575704#12 -142575704#11 -142575704#10 -142575704#8 -142575704#7 -142575704#6 142575704#6"/>
    </vehicle>
    <vehicle id="veh55" type="veh_passenger" depart="143.02" departLane="best">
        <route edges="23925124#0 23925119#0 23925119#1 40191606#2 40191606#3 414563781 318210357#0 206889086#1 152839448 541676219 318210389#0 81639675#1 81639675#2 -318210361#3 -318210361#0 -314415495#20 -314415495#18 142575656#0 142575656#1 142575656#3 142575656#4 142575656#5 142575656#6 -142575704#1 142575704#1"/>
    </vehicle>
    <vehicle id="veh57" type="veh_passenger" depart="148.22" departLane="best">
        <route edges="-142575655#7 -142575655#6 -142575655#5 -142575655#4 -142575655#1 -142575655#0 -318210378#5 -318210378#4 -318210378#3 -318210378#2 -318210378#0 -318210376 -318210377#1 -318210377#0 -31050360#2 -31050360#1 -31050360#0 143308552#1 143308549#1 143308549#2 52036180#1 52036180#2 52036180#4 -45875465#0 152839428 24152326#0 24152326#1 23925124#0 23925119#0 23925119#1 40191606#2 40191606#3"/>
    </vehicle>
    <vehicle id="veh58" type="veh_passenger" depart="150.82" departLane="best">
        <route edges="318210394#1 -334308447#0 -318210394#0 -52080655#2 81639675#1 81639675#2 143308555#1 143308555#2 143308555#3 31050360#0 31050360#1"/>
    </vehicle>
    <vehicle id="veh59" type="veh_passenger" depart="153.42" departLane="best">
        <route edges="-314415495#11 314415495#11 314415495#12 314415495#13 314415495#14 314415495#15 314415495#17 142575656#0 142575656#1 142575656#3 142575656#4 142575656#5 142575656#6 142575656#7 142575656#8 142575656#9 142575656#10 142575674#0 -142575674#0"/>
    </vehicle>
    <vehicle id="veh60" type="veh_passenger" depart="156.02" departLane="best">
        <route edges="318210394#1 -334308447#0 -318210394#0 -52080655#2 52036180#1 52036180#2 52036180#4 72230304#1 461514282#0 461514282#1"/>
    </vehicle>
    <vehicle id="veh61" type="veh_passenger" depart="158.63" departLane="best">
        <route edges="-142575684#1 -142575684#0 142575685#0 142575685#1 -142575655#9 -142575655#8 -142575655#7 -142575655#6 -142575655#5 -142575655#4 -142575655#1 -142575655#0 -318210378#5 -318210378#4 -318210378#3 -318210378#2 -318210378#0 -318210376 -318210377#1 -318210377#0 -31050360#2 -31050360#1 -31050360#0 143308552#1 143308549#1 143308549#2 52036180#1 52036180#2 52036180#4 -45875465#0 152839428 24152326#0 24152326#1 23925124#0 23925124#1 23925124#2 -166142951#1 -166142951#0 -137534616#4 -137534616#3 -137534616#2 23788323#1"/>
    </vehicle>
    <vehicle id="veh62" type="veh_passenger" depart="161.23" departLane="best">
        <route edges="22762397 192204854#0 204721579#2 204721579#3 204721579#4 204721579#6 204721579#7 204721579#8 153021549#0 153021549#1 153021549#2 153021549#3 153021549#4 153021549#5 40191606#0 40191606#2 40191606#3 414563781 318210357#0 206889086#1 152839448 541676219 318210389#0 81639675#1 81639675#2 143308555#1 143308555#2 143308555#3 31050360#0 31050360#1 31050360#2 318210377#0 318210377#1 318210376 318210378#0 318210378#2 318210378#3 -142575710#5"/>
    </vehicle>
    <vehicle id="veh64" type="veh_passenger" depart="166.43" departLane="best">
        <route edges="-23913524#6 -23913524#5 -23913524#3 -23913524#2 -23913524#1 -23913524#0 137534616#0 137534616#1 137534616#2 137534616#3 137534616#4 166142951#0 166142951#1 149611526#0 40191606#0 40191606#2 40191606#3 414563781 318210357#0 206889086#1 152839448 541676219 318210389#0 81639675#1 81639675#2 143308555#1 143308555#2 143308555#3 31050360#0 31050360#1 31050360#2 318210377#0 318210377#1 318210376 318210378#0 318210378#2 318210378#3 318210378#4"/>
    </vehicle>
    <vehicle id="veh65" type="veh_passenger" depart="169.03" departLane="best">
        <route edges="142575655#6 -52081075#7 -52081075#6 -52081075#4 -52081075#3 -52081075#2 143308542#11 143308542#12 143308542#13 143308542#14 143308542#15 143308542#16 143308542#17 143308552#1 143308549#1 143308549#2 52036180#1 52036180#2 52036180#4 -45875465#0 152839428 -152839426"/>
    </vehicle>
    <vehicle id="veh66" type="veh_passenger" depart="171.63" departLane="best">
        <route edges="142575704#0 142575704#1 142575656#7 142575656#8 142575656#9 142575656#10 142575656#11 142575656#12 142575656#14 142575656#15 147859763#1 147859763#2 147859763#3 147859763#4 147859763#5 147859763#6 147859763#8 147859763#9 147859763#10 172014854#0 172014854#1 172014854#2 190083608#1"/>
    </vehicle>
    <vehicle id="veh67" type="veh_passenger" depart="174.23" departLane="best">
        <route edges="-147859765#5 -147859765#3 -147859765#2 -147859765#1 -147859765#0 -142575691#5 -142575691#2 -142575691#1 -142575691#0 143308542#8 143308542#9 143308542#10 143308542#11 143308542#12 143308542#13 143308542#14 143308542#15 143308542#16 143308542#17 31050360#0 31050360#1 31050360#2 318210377#0 318210377#1 318210376 318210378#0 -318210378#0 -318210376"/>
    </vehicle>
    <vehicle id="veh68" type="veh_passenger" depart="176.83" departLane="best">
        <route edges="73058506#1 -73058506#1 -73058506#0 -143308523#8 -143308523#7 -143308523#6 -143308523#5 -143308523#4 -143308523#3 -143308523#2 -143308523#1 -143308523#0 375685718#0 375685718#1 382647882 81639678#1 48858191#1 48858191#3 318210383#0 52243916#1 52243916#2 -43660343#1 -43660343#0 10735918#0 10735918#1 204721579#2 204721579#3 204721579#4 204721579#6 204721579#7 204721579#8 146511461#0 146511461#2"/>
    </vehicle>
    <vehicle id="veh69" type="veh_passenger" depart="179.43" departLane="best">
        <route edges="142575656#8 -142575656#8 -142575656#7 -142575704#1 -142575704#0 143308542#14 143308542#15 143308542#16 143308542#17 143308552#1 143308549#1 143308549#2 142575672#2 142575695#0 142575695#1 142575695#2"/>
    </vehicle>
    <vehicle id="veh70" type="veh_passenger" depart="182.03" departLane="best">
        <route edges="-142575704#0 143308542#14 143308542#15 143308542#16 143308542#17 143308552#1 143308549#1 143308549#2 52036180#1 52036180#2 52036180#4 72230304#1 461514282#0 461514282#1 204721578#0 204721578#1 153021553#1 318210353 318210351 207086005 318210360#0 27087586#1 318210374 -187122892#14 -187122892#13 -187122892#12"/>
    </vehicle>
    <vehicle id="veh71" type="veh_passenger" depart="184.63" departLane="best">
        <route edges="-318210378#5 318210378#5 142575655#0 142575655#1 142575655#4 142575655#5 142575655#6 142575655#7 142575655#8 142575655#9 -143308521#7 -143308521#6 -143308521#5 -143308521#4 -143308521#3 -143308521#2 -143308521#1 143308562#0 143308562#1 143308562#3 143308532#5 143308532#6"/>
    </vehicle>
    <vehicle id="veh72" type="veh_passenger" depart="187.23" departLane="best">
        <route edges="-142575684#5 -142575684#4 -142575684#1 -142575684#0 142575685#0 142575685#1 -142575655#9 -142575655#8 -142575655#7 -142575655#6 -142575655#5 -142575655#4 -142575655#1 -142575655#0 -318210378#5 -318210378#4 -318210378#3 -318210378#2 -318210378#0 -318210376 -318210377#1 -318210377#0 -31050360#2 -31050360#1 -31050360#0 143308552#1 143308549#1 143308549#2"/>
    </vehicle>
    <vehicle id="veh73" type="veh_passenger" depart="189.83" departLane="best">