<?xml version="1.0" encoding="UTF-8"?>

<!-- generated on 2022-04-06 22:28:04 by Eclipse SUMO duarouter Version v1_12_0+2004-e7e2d65b133
<configuration xmlns:xsi="http://www.w3.org/2001/XMLSchema-instance" xsi:noNamespaceSchemaLocation="http://sumo.dlr.de/xsd/duarouterConfiguration.xsd">

    <input>
        <net-file value="C:\erdm_ja\sip-svn-trunk\papers\DLR\SUMO_Conference2022\tutorial\2022-04-06-22-27-55\osm.net.xml"/>
        <route-files value="C:\erdm_ja\sip-svn-trunk\papers\DLR\SUMO_Conference2022\tutorial\2022-04-06-22-27-55\osm.passenger.trips.xml"/>
    </input>

    <output>
        <output-file value="C:\erdm_ja\sip-svn-trunk\papers\DLR\SUMO_Conference2022\tutorial\2022-04-06-22-27-55\osm.passenger.trips.xml.tmp"/>
        <write-trips value="true"/>
    </output>

    <time>
        <begin value="0"/>
        <end value="3600"/>
    </time>

    <report>
        <no-warnings value="true"/>
        <ignore-errors value="true"/>
        <no-step-log value="true"/>
    </report>

</configuration>
-->

<routes xmlns:xsi="http://www.w3.org/2001/XMLSchema-instance" xsi:noNamespaceSchemaLocation="http://sumo.dlr.de/xsd/routes_file.xsd">
    <vType id="veh_passenger" vClass="passenger"/>
    <trip id="veh0" type="veh_passenger" depart="0.00" departLane="best" from="318210389#0" to="-145586617#33"/>
    <trip id="veh1" type="veh_passenger" depart="2.11" departLane="best" from="192204854#0" to="145586606"/>
    <trip id="veh2" type="veh_passenger" depart="4.22" departLane="best" from="40451057#0" to="318210400#0"/>
    <trip id="veh3" type="veh_passenger" depart="6.32" departLane="best" from="70553224#0" to="-318210387"/>
    <trip id="veh4" type="veh_passenger" depart="8.43" departLane="best" from="238053689#0" to="-170149081#1"/>
    <trip id="veh5" type="veh_passenger" depart="10.54" departLane="best" from="152839434#0" to="283006415#0"/>
    <trip id="veh6" type="veh_passenger" depart="12.65" departLane="best" from="-180239842" to="145149730#0"/>
    <trip id="veh7" type="veh_passenger" depart="14.76" departLane="best" from="318210399#0" to="292525973"/>
    <trip id="veh8" type="veh_passenger" depart="16.86" departLane="best" from="153021542#0" to="318210351"/>
    <trip id="veh9" type="veh_passenger" depart="18.97" departLane="best" from="46150483#0" to="-1014130057"/>
    <trip id="veh10" type="veh_passenger" depart="21.08" departLane="best" from="46039051#0" to="319990110#0"/>
    <trip id="veh11" type="veh_passenger" depart="23.19" departLane="best" from="206579071" to="11389403#0"/>
    <trip id="veh12" type="veh_passenger" depart="25.30" departLane="best" departSpeed="max" from="860314547" to="206579066#0"/>
    <trip id="veh13" type="veh_passenger" depart="27.40" departLane="best" departSpeed="max" from="-4566706#3" to="-354099456#2"/>
    <trip id="veh14" type="veh_passenger" depart="29.51" departLane="best" from="54039620#0" to="318210357#0"/>
    <trip id="veh15" type="veh_passenger" depart="31.62" departLane="best" from="46039051#0" to="348583833#0"/>
    <trip id="veh16" type="veh_passenger" depart="33.73" departLane="best" from="292525977" to="868347084"/>
    <trip id="veh17" type="veh_passenger" depart="35.84" departLane="best" from="22721677#4" to="292525975"/>
    <trip id="veh18" type="veh_passenger" depart="37.94" departLane="best" departSpeed="max" from="51939089" to="318210362"/>
    <trip id="veh19" type="veh_passenger" depart="40.05" departLane="best" from="670062912#0" to="292526264"/>
    <trip id="veh20" type="veh_passenger" depart="42.16" departLane="best" from="348583831#0" to="-190083616"/>
    <trip id="veh21" type="veh_passenger" depart="44.27" departLane="best" from="16942869" to="190928926#0"/>
    <trip id="veh22" type="veh_passenger" depart="46.38" departLane="best" from="-339558638#6" to="145586607"/>
    <trip id="veh23" type="veh_passenger" depart="48.48" departLane="best" from="-52080655#2" to="180239847"/>
    <trip id="veh24" type="veh_passenger" depart="50.59" departLane="best" from="318210388#0" to="206579088"/>
    <trip id="veh25" type="veh_passenger" depart="52.70" departLane="best" departSpeed="max" from="22721677#0" to="145149730#0"/>
    <trip id="veh26" type="veh_passenger" depart="54.81" departLane="best" from="190083618#0" to="8025429#0"/>
    <trip id="veh27" type="veh_passenger" depart="56.92" departLane="best" from="318210394#0" to="318210360#0"/>
    <trip id="veh28" type="veh_passenger" depart="59.02" departLane="best" from="143308552#0" to="348583833#0"/>
    <trip id="veh29" type="veh_passenger" depart="61.13" departLane="best" from="142575669" to="216169544#0"/>
    <trip id="veh30" type="veh_passenger" depart="63.24" departLane="best" from="976351540#0" to="318210374#0"/>
    <trip id="veh31" type="veh_passenger" depart="65.35" departLane="best" from="53385386#0" to="4054013#3"/>
    <trip id="veh32" type="veh_passenger" depart="67.46" departLane="best" from="16942869" to="-170149081#1"/>
    <trip id="veh36" type="veh_passenger" depart="75.89" departLane="best" from="81639678#0" to="238053692"/>
    <trip id="veh37" type="veh_passenger" depart="78.00" departLane="best" from="190083618#0" to="145795435#0"/>
    <trip id="veh38" type="veh_passenger" depart="80.11" departLane="best" from="318210351" to="153021545#0"/>
    <trip id="veh39" type="veh_passenger" depart="82.21" departLane="best" from="318210360#0" to="670062924"/>
    <trip id="veh40" type="veh_passenger" depart="84.32" departLane="best" from="23010175#0" to="145586606"/>
    <trip id="veh41" type="veh_passenger" depart="86.43" departLane="best" from="998166558" to="283006416#0"/>
    <trip id="veh42" type="veh_passenger" depart="88.54" departLane="best" departSpeed="max" from="-4566706#3" to="-190083616"/>
    <trip id="veh43" type="veh_passenger" depart="90.65" departLane="best" from="-679901152#2" to="318210365"/>
    <trip id="veh44" type="veh_passenger" depart="92.75" departLane="best" from="4566616#0" to="22917228#0"/>
    <trip id="veh46" type="veh_passenger" depart="96.97" departLane="best" from="998166558" to="292525973"/>
    <trip id="veh47" type="veh_passenger" depart="99.08" departLane="best" from="862741108" to="53385386#0"/>
    <trip id="veh48" type="veh_passenger" depart="101.19" departLane="best" from="-141968853#2" to="329019785#0"/>
    <trip id="veh49" type="veh_passenger" depart="103.29" departLane="best" departSpeed="max" from="319692412" to="292525973"/>
    <trip id="veh50" type="veh_passenger" depart="105.40" departLane="best" from="190083618#0" to="318210374#0"/>
    <trip id="veh52" type="veh_passenger" depart="109.62" departLane="best" from="26547169" to="850224612"/>
    <trip id="veh54" type="veh_passenger" depart="113.83" departLane="best" from="283006416#0" to="143308542#0"/>
    <trip id="veh55" type="veh_passenger" depart="115.94" departLane="best" from="81414476#0" to="62127566"/>
    <trip id="veh56" type="veh_passenger" depart="118.05" departLane="best" departSpeed="max" from="19791220" to="318210371#0"/>
    <trip id="veh57" type="veh_passenger" depart="120.16" departLane="best" from="318210367#0" to="11279858#0"/>
    <trip id="veh58" type="veh_passenger" depart="122.27" departLane="best" from="431551338" to="292525973"/>
    <trip id="veh59" type="veh_passenger" depart="124.37" departLane="best" from="431573407#0" to="292525973"/>
    <trip id="veh60" type="veh_passenger" depart="126.48" departLane="best" from="-1013117571#1" to="206579057"/>
    <trip id="veh61" type="veh_passenger" depart="128.59" departLane="best" from="-145586617#31" to="800655351"/>
    <trip id="veh63" type="veh_passenger" depart="132.81" departLane="best" from="204721579#0" to="-206579065"/>
    <trip id="veh65" type="veh_passenger" depart="137.02" departLane="best" from="-43660343#1" to="26547171#2"/>
    <trip id="veh66" type="veh_passenger" depart="139.13" departLane="best" from="-318210380#2" to="40451057#0"/>
    <trip id="veh67" type="veh_passenger" depart="141.24" departLane="best" from="431573403" to="-81535329#13"/>
    <trip id="veh68" type="veh_passenger" depart="143.35" departLane="best" departSpeed="max" from="270282145" to="292525975"/>
    <trip id="veh69" type="veh_passenger" depart="145.45" departLane="best" from="190083618#0" to="663605951#0"/>
    <trip id="veh70" type="veh_passenger" depart="147.56" departLane="best" from="238053689#0" to="145586606"/>
    <trip id="veh71" type="veh_passenger" depart="149.67" departLane="best" from="292525978" to="348583833#0"/>
    <trip id="veh72" type="veh_passenger" depart="151.78" departLane="best" departSpeed="max" from="145586617#0" to="194896804#0"/>
    <trip id="veh73" type="veh_passenger" depart="153.89" departLane="best" from="998166558" to="318210379"/>
    <trip id="veh74" type="veh_passenger" depart="155.99" departLane="best" departSpeed="max" from="25368900#0" to="292525972"/>
    <trip id="veh75" type="veh_passenger" depart="158.10" departLane="best" departSpeed="max" from="-850224612" to="145586606"/>
    <trip id="veh76" type="veh_passenger" depart="160.21" departLane="best" from="206579071" to="318210351"/>
    <trip id="veh77" type="veh_passenger" depart="162.32" departLane="best" from="176039655" to="145586606"/>
    <trip id="veh78" type="veh_passenger" depart="164.43" departLane="best" from="-318210387" to="318210366"/>
    <trip id="veh79" type="veh_passenger" depart="166.53" departLane="best" from="16942869" to="70130339#0"/>
    <trip id="veh80" type="veh_passenger" depart="168.64" departLane="best" from="670062909#0" to="-318210362"/>
    <trip id="veh81" type="veh_passenger" depart="170.75" departLane="best" from="180239847" to="318210393#2"/>
    <trip id="veh82" type="veh_passenger" depart="172.86" departLane="best" from="147053824#0" to="-886496560"/>
    <trip id="veh83" type="veh_passenger" depart="174.97" departLane="best" departSpeed="max" from="83708562" to="292526263-AddedOffRampEdge"/>
    <trip id="veh84" type="veh_passenger" depart="177.07" departLane="best" departSpeed="max" from="270282145" to="431551338"/>
    <trip id="veh85" type="veh_passenger" depart="179.18" departLane="best" from="46039051#0" to="145009975#0"/>
    <trip id="veh87" type="veh_passenger" depart="183.40" departLane="best" from="238053689#0" to="25368900#0"/>
    <trip id="veh89" type="veh_passenger" depart="187.61" departLane="best" from="97206934#0" to="-363443437"/>
    <trip id="veh90" type="veh_passenger" depart="189.72" departLane="best" from="23010373" to="206579067"/>
    <trip id="veh91" type="veh_passenger" depart="191.83" departLane="best" from="670062912#0" to="146511465"/>
    <trip id="veh92" type="veh_passenger" depart="193.94" departLane="best" from="145009985#0" to="238053688#0"/>
    <trip id="veh93" type="veh_passenger" depart="196.05" departLane="best" from="238053689#0" to="180239858#0"/>
    <trip id="veh94" type="veh_passenger" depart="198.16" departLane="best" departSpeed="max" from="180797802#0" to="72230304#0"/>
    <trip id="veh95" type="veh_passenger" depart="200.26" departLane="best" departSpeed="max" from="25368900#0" to="53385386#0"/>
    <trip id="veh96" type="veh_passenger" depart="202.37" departLane="best" from="292526263-AddedOffRampEdge" to="-204977490#2"/>
    <trip id="veh97" type="veh_passenger" depart="204.48" departLane="best" from="998243552#0" to="46039051#0"/>
    <trip id="veh98" type="veh_passenger" depart="206.59" departLane="best" from="862741107" to="745656019#0"/>
    <trip id="veh99" type="veh_passenger" depart="208.70" departLane="best" from="541676222" to="141968844#6"/>
    <trip id="veh100" type="veh_passenger" depart="210.80" departLane="best" departSpeed="max" from="270282145" to="145586606"/>
    <trip id="veh101" type="veh_passenger" depart="212.91" departLane="best" from="23010373" to="-206579065"/>
    <trip id="veh102" type="veh_passenger" depart="215.02" departLane="best" from="22721677#4" to="97206934#0"/>
    <trip id="veh103" type="veh_passenger" depart="217.13" departLane="best" from="190083618#0" to="431551338"/>
    <trip id="veh104" type="veh_passenger" depart="219.24" departLane="best" departSpeed="max" from="860314547" to="998166558"/>
    <trip id="veh107" type="veh_passenger" depart="225.56" departLane="best" from="862741107" to="31050360#0"/>
    <trip id="veh108" type="veh_passenger" depart="227.67" departLane="best" from="292526263" to="39969574#0"/>
    <trip id="veh109" type="veh_passenger" depart="229.78" departLane="best" from="-318210364#1" to="31091898"/>
    <trip id="veh110" type="veh_passenger" depart="231.88" departLane="best" from="283006416#0" to="48858193#0"/>
    <trip id="veh111" type="veh_passenger" depart="233.99" departLane="best" from="141968844#6" to="85278289#0"/>
    <trip id="veh112" type="veh_passenger" depart="236.10" departLane="best" from="-354099456#2" to="143308590#0"/>
    <trip id="veh114" type="veh_passenger" depart="240.32" departLane="best" from="180239843" to="-679901152#2"/>
    <trip id="veh115" type="veh_passenger" depart="242.42" departLane="best" from="238053688#0" to="31091898"/>
    <trip id="veh116" type="veh_passenger" depart="244.53" departLane="best" from="292525974" to="800655352#0"/>
    <trip id="veh117" type="veh_passenger" depart="246.64" departLane="best" from="145586634" to="326994261#0"/>
    <trip id="veh119" type="veh_passenger" depart="250.86" departLane="best" from="206579061" to="40191605#0"/>
    <trip id="veh120" type="veh_passenger" depart="252.96" departLane="best" from="-318210395" to="238053691"/>
    <trip id="veh121" type="veh_passenger" depart="255.07" departLane="best" from="998243552#0" to="998166558"/>
    <trip id="veh122" type="veh_passenger" depart="257.18" departLane="best" from="-320741893" to="145586606"/>
    <trip id="veh123" type="veh_passenger" depart="259.29" departLane="best" from="190083618#0" to="800655352#0"/>
    <trip id="veh125" type="veh_passenger" depart="263.50" departLane="best" departSpeed="max" from="22721677#0" to="12749623"/>
    <trip id="veh126" type="veh_passenger" depart="265.61" departLane="best" from="318210369" to="97206935#0"/>
    <trip id="veh127" type="veh_passenger" depart="267.72" departLane="best" from="318210400#0" to="-1036185119#2"/>
    <trip id="veh129" type="veh_passenger" depart="271.94" departLane="best" departSpeed="max" from="319692412" to="8025704#0"/>
    <trip id="veh130" type="veh_passenger" depart="274.04" departLane="best" from="10735918" to="-54039620#2"/>
    <trip id="veh131" type="veh_passenger" depart="276.15" departLane="best" from="-578917008" to="292525975"/>
    <trip id="veh132" type="veh_passenger" depart="278.26" departLane="best" from="190928927#0" to="318210358"/>
    <trip id="veh133" type="veh_passenger" depart="280.37" departLane="best" from="363443435" to="145149730#0"/>
    <trip id="veh134" type="veh_passenger" depart="282.48" departLane="best" from="318210388#0" to="166142947"/>
    <trip id="veh135" type="veh_passenger" depart="284.58" departLane="best" departSpeed="max" from="270282145" to="70130339#0"/>
    <trip id="veh136" type="veh_passenger" depart="286.69" departLane="best" from="54039595#0" to="-330929805#5"/>
    <trip id="veh137" type="veh_passenger" depart="288.80" departLane="best" from="238053689#0" to="180239847"/>
    <trip id="veh138" type="veh_passenger" depart="290.91" departLane="best" from="-117951616#4" to="4054013#0"/>
    <trip id="veh139" type="veh_passenger" depart="293.02" departLane="best" from="318210389#0" to="153021545#0"/>
    <trip id="veh140" type="veh_passenger" depart="295.12" departLane="best" from="40451058#0" to="292525975"/>
    <trip id="veh141" type="veh_passenger" depart="297.23" departLane="best" from="238053690#0" to="-117951616#4"/>
    <trip id="veh142" type="veh_passenger" depart="299.34" departLane="best" from="-330929805#5" to="670062920"/>
    <trip id="veh143" type="veh_passenger" depart="301.45" departLane="best" from="800655352#0" to="292525974"/>
    <trip id="veh144" type="veh_passenger" depart="303.56" departLane="best" from="117951616#0" to="-81535329#13"/>
    <trip id="veh145" type="veh_passenger" depart="305.66" departLane="best" from="204721580#0" to="670062924"/>
    <trip id="veh146" type="veh_passenger" depart="307.77" departLane="best" from="45875465" to="53385386#0"/>
    <trip id="veh147" type="veh_passenger" depart="309.88" departLane="best" from="800655351" to="145149730#0"/>
    <trip id="veh148" type="veh_passenger" depart="311.99" departLane="best" departSpeed="max" from="180797802#0" to="-382647882"/>
    <trip id="veh149" type="veh_passenger" depart="314.10" departLane="best" from="435912753#0" to="670062920"/>
    <trip id="veh150" type="veh_passenger" depart="316.20" departLane="best" from="237122662#0" to="318210363#0"/>
    <trip id="veh151" type="veh_passenger" depart="318.31" departLane="best" from="141968844#1" to="800655351"/>
    <trip id="veh153" type="veh_passenger" depart="322.53" departLane="best" from="461514282#0" to="670062920"/>
    <trip id="veh154" type="veh_passenger" depart="324.64" departLane="best" from="-178028204#9" to="354090677"/>
    <trip id="veh155" type="veh_passenger" depart="326.75" departLane="best" from="206579068" to="800655352#0"/>
    <trip id="veh156" type="veh_passenger" depart="328.85" departLane="best" from="460217098#0" to="54039595#0"/>
    <trip id="veh157" type="veh_passenger" depart="330.96" departLane="best" from="461514282#0" to="16942869"/>
    <trip id="veh159" type="veh_passenger" depart="335.18" departLane="best" from="153021545#0" to="4566616#0"/>
    <trip id="veh161" type="veh_passenger" depart="339.39" departLane="best" from="45875465" to="145586606"/>
    <trip id="veh162" type="veh_passenger" depart="341.50" departLane="best" from="-177615722" to="145009985#0"/>
    <trip id="veh163" type="veh_passenger" depart="343.61" departLane="best" from="862741106" to="180239858#0"/>
    <trip id="veh164" type="veh_passenger" depart="345.72" departLane="best" from="318210393#0" to="22762399"/>
    <trip id="veh166" type="veh_passenger" depart="349.93" departLane="best" departSpeed="max" from="83708562" to="-54039620#2"/>
    <trip id="veh167" type="veh_passenger" depart="352.04" departLane="best" from="862741108" to="143308542#0"/>
    <trip id="veh168" type="veh_passenger" depart="354.15" departLane="best" departSpeed="max" from="860314547" to="16942869"/>
    <trip id="veh170" type="veh_passenger" depart="358.37" departLane="best" from="40191605#0" to="19791219"/>
    <trip id="veh171" type="veh_passenger" depart="360.47" departLane="best" from="318210366" to="283006423#0"/>
    <trip id="veh172" type="veh_passenger" depart="362.58" departLane="best" from="22762377-AddedOffRampEdge" to="292526264"/>
    <trip id="veh173" type="veh_passenger" depart="364.69" departLane="best" departSpeed="max" from="183256955#0" to="320741894#0"/>
    <trip id="veh174" type="veh_passenger" depart="366.80" departLane="best" from="-1036185119#2" to="745656019#0"/>
    <trip id="veh175" type="veh_passenger" depart="368.91" departLane="best" from="292525978" to="329019785#0"/>
    <trip id="veh176" type="veh_passenger" depart="371.01" departLane="best" from="40451058#1" to="318210393#2"/>
    <trip id="veh177" type="veh_passenger" depart="373.12" departLane="best" from="216169544#0" to="-318210361#3"/>
    <trip id="veh178" type="veh_passenger" depart="375.23" departLane="best" departSpeed="max" from="319692412" to="206579063#0"/>
    <trip id="veh179" type="veh_passenger" depart="377.34" departLane="best" from="206579057" to="48858191#0"/>
    <trip id="veh181" type="veh_passenger" depart="381.55" departLane="best" from="204721580#0" to="22762399"/>
    <trip id="veh183" type="veh_passenger" depart="385.77" departLane="best" from="1000328788" to="22917228#0"/>
    <trip id="veh184" type="veh_passenger" depart="387.88" departLane="best" departSpeed="max" from="83708562" to="318210400#0"/>
    <trip id="veh185" type="veh_passenger" depart="389.99" departLane="best" from="800655352#0" to="318210361#0"/>
    <trip id="veh186" type="veh_passenger" depart="392.09" departLane="best" departSpeed="max" from="19791220" to="292525974"/>
    <trip id="veh187" type="veh_passenger" depart="394.20" departLane="best" from="-1013117571#1" to="190083618#0"/>
    <trip id="veh188" type="veh_passenger" depart="396.31" departLane="best" from="238053692" to="31091898"/>
    <trip id="veh189" type="veh_passenger" depart="398.42" departLane="best" from="318210400#0" to="25332091#1"/>
    <trip id="veh190" type="veh_passenger" depart="400.53" departLane="best" departSpeed="max" from="25368900#0" to="145586606"/>
    <trip id="veh191" type="veh_passenger" depart="402.63" departLane="best" departSpeed="max" from="270282145" to="679714112"/>
    <trip id="veh192" type="veh_passenger" depart="404.74" departLane="best" from="45875465" to="142575667#0"/>
    <trip id="veh193" type="veh_passenger" depart="406.85" departLane="best" from="-38915290#2" to="28475451#0"/>
    <trip id="veh194" type="veh_passenger" depart="408.96" departLane="best" from="318210387" to="206579065"/>
    <trip id="veh195" type="veh_passenger" depart="411.07" departLane="best" from="48858191#0" to="40191605#0"/>
    <trip id="veh196" type="veh_passenger" depart="413.17" departLane="best" departSpeed="max" from="319692412" to="145586606"/>
    <trip id="veh197" type="veh_passenger" depart="415.28" departLane="best" departSpeed="max" from="145586617#0" to="-145586617#33"/>
    <trip id="veh198" type="veh_passenger" depart="417.39" departLane="best" departSpeed="max" from="180797802#0" to="25944425#0"/>
    <trip id="veh199" type="veh_passenger" depart="419.50" departLane="best" from="541676222" to="-318210364#1"/>
    <trip id="veh200" type="veh_passenger" depart="421.61" departLane="best" from="238053687" to="318210366"/>
    <trip id="veh201" type="veh_passenger" depart="423.71" departLane="best" from="145586607" to="319990110#0"/>
    <trip id="veh202" type="veh_passenger" depart="425.82" departLane="best" from="27087586#0" to="145586635"/>
    <trip id="veh203" type="veh_passenger" depart="427.93" departLane="best" from="318210401#0" to="-1014130057"/>
    <trip id="veh205" type="veh_passenger" depart="432.15" departLane="best" from="143308587#0" to="850224612"/>
    <trip id="veh206" type="veh_passenger" depart="434.25" departLane="best" from="292525972-AddedOffRampEdge" to="-204977490#2"/>
    <trip id="veh207" type="veh_passenger" depart="436.36" departLane="best" departSpeed="max" from="180797802#0" to="48858191#0"/>
    <trip id="veh208" type="veh_passenger" depart="438.47" departLane="best" from="26547171#0" to="431573407#0"/>
    <trip id="veh209" type="veh_passenger" depart="440.58" departLane="best" departSpeed="max" from="319692412" to="97206935#0"/>
    <trip id="veh210" type="veh_passenger" depart="442.69" departLane="best" from="318210362" to="822124414"/>
    <trip id="veh211" type="veh_passenger" depart="444.80" departLane="best" from="70553224#0" to="318210360#0"/>
    <trip id="veh212" type="veh_passenger" depart="446.90" departLane="best" from="363443435" to="283006415#0"/>
    <trip id="veh213" type="veh_passenger" depart="449.01" departLane="best" departSpeed="max" from="51939089" to="292525974"/>
    <trip id="veh214" type="veh_passenger" depart="451.12" departLane="best" from="745656019#0" to="363443436#0"/>
    <trip id="veh215" type="veh_passenger" depart="453.23" departLane="best" departSpeed="max" from="270282145" to="153021542#0"/>
    <trip id="veh216" type="veh_passenger" depart="455.34" departLane="best" departSpeed="max" from="180797802#0" to="318210371#0"/>
    <trip id="veh217" type="veh_passenger" depart="457.44" departLane="best" from="431573403" to="292525972"/>
    <trip id="veh218" type="veh_passenger" depart="459.55" departLane="best" from="-33234937#10" to="190083618#0"/>
    <trip id="veh219" type="veh_passenger" depart="461.66" departLane="best" from="190928926#0" to="204721580#0"/>
    <trip id="veh220" type="veh_passenger" depart="463.77" departLane="best" from="292525978" to="1003191656#0"/>
    <trip id="veh221" type="veh_passenger" depart="465.88" departLane="best" from="176039655" to="319990110#0"/>
    <trip id="veh222" type="veh_passenger" depart="467.98" departLane="best" from="348583833#0" to="-25368898#9"/>
    <trip id="veh223" type="veh_passenger" depart="470.09" departLane="best" from="237122662#0" to="292525973"/>
    <trip id="veh224" type="veh_passenger" depart="472.20" departLane="best" from="238053687" to="145149730#0"/>
    <trip id="veh225" type="veh_passenger" depart="474.31" departLane="best" from="238053688#0" to="695791478"/>
    <trip id="veh226" type="veh_passenger" depart="476.42" departLane="best" from="318210358" to="319990110#0"/>
    <trip id="veh227" type="veh_passenger" depart="478.52" departLane="best" from="670062907#0" to="40451058#1"/>
    <trip id="veh228" type="veh_passenger" depart="480.63" departLane="best" from="22762377" to="-1014130057"/>
    <trip id="veh229" type="veh_passenger" depart="482.74" departLane="best" from="206579083" to="40191607#0"/>
    <trip id="veh230" type="veh_passenger" depart="484.85" departLane="best" from="663605951#0" to="822124414"/>
    <trip id="veh231" type="veh_passenger" depart="486.96" departLane="best" from="238053688#0" to="39969574#0"/>
    <trip id="veh232" type="veh_passenger" depart="489.06" departLane="best" from="292526263-AddedOffRampEdge" to="318210357#0"/>
    <trip id="veh233" type="veh_passenger" depart="491.17" departLane="best" from="153021542#0" to="145586606"/>
    <trip id="veh234" type="veh_passenger" depart="493.28" departLane="best" from="25332091#1" to="-170149081#1"/>
    <trip id="veh235" type="veh_passenger" depart="495.39" departLane="best" from="206579070" to="318210401#0"/>
    <trip id="veh236" type="veh_passenger" depart="497.50" departLane="best" from="23043472" to="141968844#2"/>
    <trip id="veh237" type="veh_passenger" depart="499.60" departLane="best" from="26547179" to="-81535329#13"/>
    <trip id="veh238" type="veh_passenger" depart="501.71" departLane="best" from="318210376" to="-147053824#3"/>
    <trip id="veh240" type="veh_passenger" depart="505.93" departLane="best" from="-180239842" to="318210374#0"/>
    <trip id="veh241" type="veh_passenger" depart="508.04" departLane="best" from="10735918" to="24214694#0"/>
    <trip id="veh242" type="veh_passenger" depart="510.14" departLane="best" from="-31050360#2" to="216169544#0"/>
    <trip id="veh244" type="veh_passenger" depart="514.36" departLane="best" from="431551338" to="216169544#0"/>
    <trip id="veh245" type="veh_passenger" depart="516.47" departLane="best" from="4054013#3" to="460217098#0"/>
    <trip id="veh246" type="veh_passenger" depart="518.58" departLane="best" departSpeed="max" from="180797802#0" to="-318210369"/>
    <trip id="veh247" type="veh_passenger" depart="520.68" departLane="best" from="-145586617#31" to="292525973"/>
    <trip id="veh248" type="veh_passenger" depart="522.79" departLane="best" from="998243552#0" to="206579073"/>
    <trip id="veh249" type="veh_passenger" depart="524.90" departLane="best" from="318210399#0" to="414563781"/>
    <trip id="veh250" type="veh_passenger" depart="527.01" departLane="best" from="318210399#0" to="40191607#0"/>
    <trip id="veh251" type="veh_passenger" depart="529.12" departLane="best" departSpeed="max" from="860314547" to="145149730#0"/>
    <trip id="veh252" type="veh_passenger" depart="531.22" departLane="best" from="-145586617#33" to="11279822#0"/>
    <trip id="veh253" type="veh_passenger" depart="533.33" departLane="best" from="1000328788" to="318210393#2"/>
    <trip id="veh254" type="veh_passenger" depart="535.44" departLane="best" from="318210351" to="145586606"/>
    <trip id="veh255" type="veh_passenger" depart="537.55" departLane="best" from="33234956#0" to="40451058#1"/>
    <trip id="veh256" type="veh_passenger" depart="539.66" departLane="best" from="143308532#0" to="318210358"/>
    <trip id="veh257" type="veh_passenger" depart="541.76" departLane="best" from="4054013#0-AddedOffRampEdge" to="-54039620#2"/>
    <trip id="veh258" type="veh_passenger" depart="543.87" departLane="best" from="48858191#0" to="862741106"/>
    <trip id="veh259" type="veh_passenger" depart="545.98" departLane="best" from="-578917008" to="-146511452"/>
    <trip id="veh260" type="veh_passenger" depart="548.09" departLane="best" from="204977490#0" to="318210400#0"/>
    <trip id="veh261" type="veh_passenger" depart="550.20" departLane="best" departSpeed="max" from="860314547" to="22762399"/>
    <trip id="veh262" type="veh_passenger" depart="552.30" departLane="best" from="354090678" to="-318210366"/>
    <trip id="veh263" type="veh_passenger" depart="554.41" departLane="best" from="-52080655#2" to="4054013#0-AddedOffRampEdge"/>
    <trip id="veh264" type="veh_passenger" depart="556.52" departLane="best" from="541676222" to="318210357#0"/>
    <trip id="veh265" type="veh_passenger" depart="558.63" departLane="best" departSpeed="max" from="-850224612" to="97206934#0"/>
    <trip id="veh266" type="veh_passenger" depart="560.74" departLane="best" from="435912753#0" to="206579071"/>
    <trip id="veh267" type="veh_passenger" depart="562.84" departLane="best" from="238053691" to="206889086#0"/>
    <trip id="veh268" type="veh_passenger" depart="564.95" departLane="best" from="283006423#0" to="206579067"/>
    <trip id="veh269" type="veh_passenger" depart="567.06" departLane="best" from="541676222" to="4566706#0"/>
    <trip id="veh270" type="veh_passenger" depart="569.17" departLane="best" from="-54039620#2" to="85278289#0"/>
    <trip id="veh271" type="veh_passenger" depart="571.28" departLane="best" from="318210388#0" to="460217094"/>
    <trip id="veh273" type="veh_passenger" depart="575.49" departLane="best" from="40451056" to="862741106"/>
    <trip id="veh274" type="veh_passenger" depart="577.60" departLane="best" from="190928926#0" to="435912754#0"/>