<?xml version="1.0" encoding="UTF-8"?>

<!-- generated on 2022-04-06 22:46:05 by Eclipse SUMO netconvert Version v1_12_0+2004-e7e2d65b133
<configuration xmlns:xsi="http://www.w3.org/2001/XMLSchema-instance" xsi:noNamespaceSchemaLocation="http://sumo.dlr.de/xsd/netconvertConfiguration.xsd">

    <input>
        <type-files value="c:\erdm_ja\sumo-dev\data\typemap\osmNetconvert.typ.xml"/>
        <osm-files value="osm_bbox.osm.xml.gz"/>
    </input>

    <output>
        <output-file value="osm.net.xml"/>
        <output.street-names value="true"/>
        <output.original-names value="true"/>
    </output>

    <projection>
        <proj.utm value="true"/>
    </projection>

    <processing>
        <geometry.remove value="true"/>
        <roundabouts.guess value="true"/>
    </processing>

    <tls_building>
        <tls.discard-simple value="true"/>
        <tls.join value="true"/>
        <tls.guess-signals value="true"/>
        <tls.default-type value="actuated"/>
    </tls_building>

    <ramp_guessing>
        <ramps.guess value="true"/>
    </ramp_guessing>

    <edge_removal>
        <keep-edges.by-vclass value="passenger"/>
    </edge_removal>

    <junctions>
        <junctions.join value="true"/>
        <junctions.corner-detail value="5"/>
    </junctions>

    <report>
        <verbose value="true"/>
        <aggregate-warnings value="5"/>
        <log value="log"/>
    </report>

</configuration>
-->

<net version="1.9" junctionCornerDetail="5" limitTurnSpeed="5.50" xmlns:xsi="http://www.w3.org/2001/XMLSchema-instance" xsi:noNamespaceSchemaLocation="http://sumo.dlr.de/xsd/net_file.xsd">

    <location netOffset="-397025.73,-5808927.41" convBoundary="0.00,0.00,5526.73,4095.35" origBoundary="13.455920,52.416195,13.576609,52.469965" projParameter="+proj=utm +zone=33 +ellps=WGS84 +datum=WGS84 +units=m +no_defs"/>

    <type id="highway.bridleway" priority="1" numLanes="1" speed="2.78" allow="pedestrian" oneway="1" width="2.00"/>
    <type id="highway.bus_guideway" priority="1" numLanes="1" speed="27.78" allow="bus" oneway="1"/>
    <type id="highway.cycleway" priority="1" numLanes="1" speed="8.33" allow="bicycle" oneway="0" width="1.00"/>
    <type id="highway.footway" priority="1" numLanes="1" speed="2.78" allow="pedestrian" oneway="1" width="2.00"/>
    <type id="highway.ford" priority="1" numLanes="1" speed="2.78" allow="army" oneway="0"/>
    <type id="highway.living_street" priority="2" numLanes="1" speed="2.78" disallow="tram rail_urban rail rail_electric rail_fast ship" oneway="0"/>
    <type id="highway.motorway" priority="14" numLanes="2" speed="39.44" allow="private emergency authority army vip passenger hov taxi bus coach delivery truck trailer motorcycle evehicle custom1 custom2" oneway="1"/>
    <type id="highway.motorway_link" priority="9" numLanes="1" speed="22.22" allow="private emergency authority army vip passenger hov taxi bus coach delivery truck trailer motorcycle evehicle custom1 custom2" oneway="1"/>
    <type id="highway.path" priority="1" numLanes="1" speed="2.78" allow="pedestrian bicycle" oneway="0" width="2.00"/>
    <type id="highway.pedestrian" priority="1" numLanes="1" speed="2.78" allow="pedestrian" oneway="1" width="2.00"/>
    <type id="highway.primary" priority="12" numLanes="2" speed="27.78" disallow="tram rail_urban rail rail_electric rail_fast ship" oneway="0"/>
    <type id="highway.primary_link" priority="7" numLanes="1" speed="22.22" disallow="tram rail_urban rail rail_electric rail_fast ship" oneway="0"/>
    <type id="highway.raceway" priority="15" numLanes="2" speed="83.33" allow="vip" oneway="0"/>
    <type id="highway.residential" priority="3" numLanes="1" speed="13.89" disallow="tram rail_urban rail rail_electric rail_fast ship" oneway="0"/>
    <type id="highway.secondary" priority="11" numLanes="1" speed="27.78" disallow="tram rail_urban rail rail_electric rail_fast ship" oneway="0"/>
    <type id="highway.secondary_link" priority="6" numLanes="1" speed="22.22" disallow="tram rail_urban rail rail_electric rail_fast ship" oneway="0"/>
    <type id="highway.service" priority="1" numLanes="1" speed="5.56" allow="pedestrian delivery bicycle" oneway="0"/>
    <type id="highway.service|railway.tram" priority="17" numLanes="1" speed="13.89" allow="pedestrian delivery bicycle tram" oneway="0"/>
    <type id="highway.stairs" priority="1" numLanes="1" speed="1.39" allow="pedestrian" oneway="1" width="2.00"/>
    <type id="highway.step" priority="1" numLanes="1" speed="1.39" allow="pedestrian" oneway="1" width="2.00"/>
    <type id="highway.steps" priority="1" numLanes="1" speed="1.39" allow="pedestrian" oneway="1" width="2.00"/>
    <type id="highway.tertiary" priority="10" numLanes="1" speed="22.22" disallow="tram rail_urban rail rail_electric rail_fast ship" oneway="0"/>
    <type id="highway.tertiary_link" priority="5" numLanes="1" speed="22.22" disallow="tram rail_urban rail rail_electric rail_fast ship" oneway="0"/>
    <type id="highway.track" priority="1" numLanes="1" speed="5.56" allow="pedestrian motorcycle moped bicycle" oneway="0"/>
    <type id="highway.trunk" priority="13" numLanes="2" speed="27.78" disallow="pedestrian bicycle tram rail_urban rail rail_electric rail_fast ship" oneway="0"/>
    <type id="highway.trunk_link" priority="8" numLanes="1" speed="22.22" disallow="pedestrian bicycle tram rail_urban rail rail_electric rail_fast ship" oneway="0"/>
    <type id="highway.unclassified" priority="4" numLanes="1" speed="13.89" disallow="tram rail_urban rail rail_electric rail_fast ship" oneway="0"/>
    <type id="highway.unsurfaced" priority="1" numLanes="1" speed="8.33" disallow="tram rail_urban rail rail_electric rail_fast ship" oneway="0"/>
    <type id="railway.highspeed" priority="21" numLanes="1" speed="69.44" allow="rail_fast" oneway="1"/>
    <type id="railway.light_rail" priority="19" numLanes="1" speed="27.78" allow="rail_urban" oneway="1"/>
    <type id="railway.preserved" priority="16" numLanes="1" speed="27.78" allow="rail" oneway="1"/>
    <type id="railway.rail" priority="20" numLanes="1" speed="44.44" allow="rail" oneway="1"/>
    <type id="railway.subway" priority="18" numLanes="1" speed="27.78" allow="rail_urban" oneway="1"/>
    <type id="railway.tram" priority="17" numLanes="1" speed="13.89" allow="tram" oneway="1"/>

    <edge id=":100154846_0" function="internal">
        <lane id=":100154846_0_0" index="0" disallow="pedestrian tram rail_urban rail rail_electric rail_fast ship" speed="13.89" length="18.39" shape="1726.93,3603.37 1723.85,3601.34 1720.35,3599.49 1716.26,3597.13 1711.44,3593.52"/>
    </edge>
    <edge id=":100154846_1" function="internal">
        <lane id=":100154846_1_0" index="0" disallow="pedestrian tram rail_urban rail rail_electric rail_fast ship" speed="3.65" length="1.44" shape="1726.93,3603.37 1726.50,3602.00"/>
    </edge>
    <edge id=":100154846_4" function="internal">
        <lane id=":100154846_4_0" index="0" disallow="pedestrian tram rail_urban rail rail_electric rail_fast ship" speed="3.65" length="3.23" shape="1726.50,3602.00 1726.69,3601.12 1727.51,3600.75 1728.94,3600.89"/>
    </edge>
    <edge id=":100154846_2" function="internal">
        <lane id=":100154846_2_0" index="0" disallow="pedestrian tram rail_urban rail rail_electric rail_fast ship" speed="13.89" length="18.66" shape="1718.51,3585.51 1721.72,3590.77 1724.16,3594.95 1726.38,3598.26 1728.94,3600.89"/>
    </edge>
    <edge id=":100154846_3" function="internal">
        <lane id=":100154846_3_0" index="0" disallow="tram rail_urban rail rail_electric rail_fast ship" speed="6.17" length="15.83" shape="1715.72,3587.07 1718.64,3592.13 1719.10,3594.36 1717.10,3593.76 1712.63,3590.34"/>
    </edge>
    <edge id=":100157291_0" function="internal">
        <lane id=":100157291_0_0" index="0" disallow="pedestrian tram rail_urban rail rail_electric rail_fast ship" speed="13.89" length="18.37" shape="1850.89,3730.57 1837.33,3718.18"/>
    </edge>
    <edge id=":100157291_1" function="internal">
        <lane id=":100157291_1_0" index="0" disallow="pedestrian tram rail_urban rail rail_electric rail_fast ship" speed="13.89" length="19.20" shape="1839.33,3715.68 1843.14,3717.72 1848.08,3719.24 1853.22,3720.33 1857.61,3721.10"/>
    </edge>
    <edge id=":100157291_2" function="internal">
        <lane id=":100157291_2_0" index="0" disallow="pedestrian tram rail_urban rail rail_electric rail_fast ship" speed="13.89" length="18.77" shape="1839.33,3715.68 1842.48,3717.69 1846.14,3719.55 1850.37,3722.02 1855.23,3725.87"/>
        <lane id=":100157291_2_1" index="1" disallow="pedestrian tram rail_urban rail rail_electric rail_fast ship" speed="13.89" length="18.77" shape="1839.33,3715.68 1853.06,3728.22"/>
    </edge>
    <edge id=":100157291_4" function="internal">
        <lane id=":100157291_4_0" index="0" disallow="pedestrian tram rail_urban rail rail_electric rail_fast ship" speed="3.65" length="1.44" shape="1839.33,3715.68 1839.76,3717.06"/>
    </edge>
    <edge id=":100157291_5" function="internal">
        <lane id=":100157291_5_0" index="0" disallow="pedestrian tram rail_urban rail rail_electric rail_fast ship" speed="3.65" length="3.23" shape="1839.76,3717.06 1839.58,3717.93 1838.76,3718.30 1837.33,3718.18"/>
    </edge>
    <edge id=":100157398_0" function="internal">
        <lane id=":100157398_0_0" index="0" disallow="tram rail_urban rail rail_electric rail_fast ship" speed="9.72" length="5.13" shape="1880.48,3719.14 1881.96,3718.76 1882.98,3718.42 1883.85,3717.86 1884.90,3716.79"/>
    </edge>
    <edge id=":100157398_1" function="internal">
        <lane id=":100157398_1_0" index="0" disallow="pedestrian tram rail_urban rail rail_electric rail_fast ship" speed="13.89" length="5.57" shape="1882.84,3722.40 1884.03,3721.23 1885.04,3720.63 1886.07,3720.04 1887.30,3718.91"/>
        <lane id=":100157398_1_1" index="1" disallow="pedestrian tram rail_urban rail rail_electric rail_fast ship" speed="13.89" length="5.57" shape="1885.33,3724.42 1886.49,3723.27 1887.48,3722.70 1888.49,3722.13 1889.70,3721.03"/>
        <lane id=":100157398_1_2" index="2" disallow="pedestrian tram rail_urban rail rail_electric rail_fast ship" speed="13.89" length="5.57" shape="1887.82,3726.43 1888.95,3725.32 1889.93,3724.76 1890.92,3724.22 1892.10,3723.15"/>
    </edge>
    <edge id=":100159422_0" function="internal">
        <lane id=":100159422_0_0" index="0" disallow="tram rail_urban rail rail_electric rail_fast ship" speed="13.89" length="0.10" shape="1041.00,2246.53 1041.05,2246.47"/>
    </edge>
    <edge id=":100159422_1" function="internal">
        <lane id=":100159422_1_0" index="0" disallow="tram rail_urban rail rail_electric rail_fast ship" speed="13.89" length="0.11" shape="1043.50,2244.61 1043.60,2244.66"/>
    </edge>
    <edge id=":100159780_0" function="internal">
        <lane id=":100159780_0_0" index="0" disallow="tram rail_urban rail rail_electric rail_fast ship" speed="13.89" length="0.45" shape="1005.19,2142.13 1004.84,2142.41"/>
    </edge>
    <edge id=":100159780_1" function="internal">
        <lane id=":100159780_1_0" index="0" disallow="tram rail_urban rail rail_electric rail_fast ship" speed="3.65" length="2.34" shape="1005.19,2142.13 1003.79,2142.48 1002.93,2142.24"/>
    </edge>
    <edge id=":100159780_4" function="internal">
        <lane id=":100159780_4_0" index="0" disallow="tram rail_urban rail rail_electric rail_fast ship" speed="3.65" length="2.34" shape="1002.93,2142.24 1002.60,2141.40 1002.82,2139.98"/>
    </edge>
    <edge id=":100159780_2" function="internal">
        <lane id=":100159780_2_0" index="0" disallow="tram rail_urban rail rail_electric rail_fast ship" speed="13.89" length="0.80" shape="1002.69,2140.77 1002.82,2139.98"/>
    </edge>
    <edge id=":100159780_3" function="internal">
        <lane id=":100159780_3_0" index="0" disallow="tram rail_urban rail rail_electric rail_fast ship" speed="3.94" length="3.57" shape="1002.69,2140.77 1003.71,2140.54 1004.42,2140.73 1004.79,2141.36 1004.84,2142.41"/>
    </edge>
    <edge id=":100161132_0" function="internal">
        <lane id=":100161132_0_0" index="0" disallow="tram rail_urban rail rail_electric rail_fast ship" speed="13.89" length="7.71" shape="1187.94,1687.55 1189.79,1688.68 1191.27,1689.09 1192.78,1689.44 1194.76,1690.39"/>
        <lane id=":100161132_0_1" index="1" disallow="tram rail_urban rail rail_electric rail_fast ship" speed="13.89" length="7.71" shape="1185.97,1690.07 1187.90,1691.26 1189.43,1691.71 1191.00,1692.09 1193.05,1693.10"/>
        <lane id=":100161132_0_2" index="2" disallow="tram rail_urban rail rail_electric rail_fast ship" speed="13.89" length="7.71" shape="1185.97,1690.07 1187.65,1691.70 1188.57,1693.06 1189.54,1694.37 1191.35,1695.81"/>
    </edge>
    <edge id=":100167375_0" function="internal">
        <lane id=":100167375_0_0" index="0" disallow="tram rail_urban rail rail_electric rail_fast ship" speed="3.65" length="4.67" shape="250.20,3389.64 248.76,3389.59 248.00,3389.12 247.92,3388.22 248.52,3386.91"/>
    </edge>
    <edge id=":100167392_0" function="internal">
        <lane id=":100167392_0_0" index="0" disallow="tram rail_urban rail rail_electric rail_fast ship" speed="6.53" length="8.27" shape="1744.29,2610.31 1742.46,2609.03 1740.61,2608.58 1738.75,2608.96 1736.86,2610.15"/>
    </edge>
    <edge id=":100167392_1" function="internal">
        <lane id=":100167392_1_0" index="0" disallow="tram rail_urban rail rail_electric rail_fast ship" speed="13.89" length="12.99" shape="1744.29,2610.31 1741.83,2607.91 1739.81,2605.61 1738.01,2603.14 1736.22,2600.21"/>
    </edge>
    <edge id=":100167392_2" function="internal">
        <lane id=":100167392_2_0" index="0" disallow="tram rail_urban rail rail_electric rail_fast ship" speed="3.65" length="1.44" shape="1744.29,2610.31 1743.95,2608.90"/>
    </edge>
    <edge id=":100167392_9" function="internal">
        <lane id=":100167392_9_0" index="0" disallow="tram rail_urban rail rail_electric rail_fast ship" speed="3.65" length="3.23" shape="1743.95,2608.90 1744.20,2608.05 1745.04,2607.73 1746.46,2607.96"/>
    </edge>
    <edge id=":100167392_3" function="internal">
        <lane id=":100167392_3_0" index="0" disallow="tram rail_urban rail rail_electric rail_fast ship" speed="13.89" length="12.02" shape="1738.99,2598.62 1740.69,2601.43 1742.28,2603.64 1744.10,2605.68 1746.46,2607.96"/>
    </edge>
    <edge id=":100167392_4" function="internal">
        <lane id=":100167392_4_0" index="0" disallow="tram rail_urban rail rail_electric rail_fast ship" speed="8.21" length="3.58" shape="1738.99,2598.62 1740.27,2601.79 1740.27,2601.95"/>
    </edge>
    <edge id=":100167392_5" function="internal">
        <lane id=":100167392_5_0" index="0" disallow="tram rail_urban rail rail_electric rail_fast ship" speed="3.65" length="1.44" shape="1738.99,2598.62 1738.90,2600.06"/>
    </edge>
    <edge id=":100167392_10" function="internal">
        <lane id=":100167392_10_0" index="0" disallow="tram rail_urban rail rail_electric rail_fast ship" speed="8.21" length="9.32" shape="1740.27,2601.95 1740.33,2604.77 1739.20,2607.56 1736.86,2610.15"/>
    </edge>
    <edge id=":100167392_11" function="internal">
        <lane id=":100167392_11_0" index="0" disallow="tram rail_urban rail rail_electric rail_fast ship" speed="3.65" length="3.23" shape="1738.90,2600.06 1738.40,2600.80 1737.51,2600.85 1736.22,2600.21"/>
    </edge>
    <edge id=":100167392_6" function="internal">
        <lane id=":100167392_6_0" index="0" disallow="tram rail_urban rail rail_electric rail_fast ship" speed="6.74" length="8.40" shape="1734.79,2607.71 1736.32,2606.02 1737.07,2604.20 1737.04,2602.26 1736.22,2600.21"/>
    </edge>
    <edge id=":100167392_7" function="internal">
        <lane id=":100167392_7_0" index="0" disallow="tram rail_urban rail rail_electric rail_fast ship" speed="8.03" length="12.99" shape="1734.79,2607.71 1737.75,2605.83 1740.68,2605.25 1743.59,2605.96 1746.46,2607.96"/>
    </edge>
    <edge id=":100167392_8" function="internal">
        <lane id=":100167392_8_0" index="0" disallow="tram rail_urban rail rail_electric rail_fast ship" speed="3.65" length="4.67" shape="1734.79,2607.71 1736.22,2607.55 1737.05,2607.90 1737.26,2608.76 1736.86,2610.15"/>
    </edge>
    <edge id=":101335910_0" function="internal">
        <lane id=":101335910_0_0" index="0" disallow="pedestrian tram rail_urban rail rail_electric rail_fast ship" speed="13.89" length="0.15" shape="5092.17,2261.77 5092.05,2261.70"/>
    </edge>
    <edge id=":101335910_1" function="internal">
        <lane id=":101335910_1_0" index="0" disallow="pedestrian tram rail_urban rail rail_electric rail_fast ship" speed="13.89" length="0.28" shape="5093.45,2258.83 5093.70,2258.96"/>
    </edge>
    <edge id=":101373692_0" function="internal">
        <lane id=":101373692_0_0" index="0" disallow="tram rail_urban rail rail_electric rail_fast ship" speed="13.89" length="8.57" shape="4957.71,2805.20 4955.44,2805.92 4953.67,2805.56 4951.83,2805.06 4949.38,2805.38"/>
    </edge>
    <edge id=":101373692_1" function="internal">
        <lane id=":101373692_1_0" index="0" disallow="tram rail_urban rail rail_electric rail_fast ship" speed="13.89" length="8.46" shape="4948.31,2802.37 4950.28,2800.71 4950.67,2798.45 4951.03,2796.12 4952.93,2794.29"/>
        <lane id=":101373692_1_1" index="1" disallow="tram rail_urban rail rail_electric rail_fast ship" speed="13.89" length="8.46" shape="4948.31,2802.37 4950.28,2801.23 4951.30,2799.89 4952.30,2798.50 4954.22,2797.22"/>
        <lane id=":101373692_1_2" index="2" disallow="tram rail_urban rail rail_electric rail_fast ship" speed="13.89" length="8.46" shape="4948.31,2802.37 4955.50,2800.15"/>
    </edge>
    <edge id=":105789413_0" function="internal">
        <lane id=":105789413_0_0" index="0" disallow="pedestrian tram rail_urban rail rail_electric rail_fast ship" speed="13.89" length="7.86" shape="4689.87,1124.43 4691.42,1126.24 4692.75,1127.26 4694.03,1128.31 4695.42,1130.22"/>
        <lane id=":105789413_0_1" index="1" disallow="pedestrian tram rail_urban rail rail_electric rail_fast ship" speed="13.89" length="7.86" shape="4687.24,1126.25 4688.74,1128.00 4690.05,1128.97 4691.30,1129.98 4692.65,1131.81"/>
        <lane id=":105789413_0_2" index="2" disallow="pedestrian tram rail_urban rail rail_electric rail_fast ship" speed="13.89" length="7.86" shape="4687.24,1126.25 4688.30,1128.23 4688.66,1129.77 4688.97,1131.34 4689.88,1133.41"/>
    </edge>
    <edge id=":138559868_0" function="internal">
        <lane id=":138559868_0_0" index="0" disallow="tram rail_urban rail rail_electric rail_fast ship" speed="13.89" length="0.31" shape="817.74,1342.23 818.01,1342.53"/>
        <lane id=":138559868_0_1" index="1" disallow="tram rail_urban rail rail_electric rail_fast ship" speed="13.89" length="0.31" shape="815.42,1344.43 815.63,1344.66"/>
        <lane id=":138559868_0_2" index="2" disallow="tram rail_urban rail rail_electric rail_fast ship" speed="13.89" length="0.31" shape="813.10,1346.64 813.25,1346.80"/>
    </edge>
    <edge id=":138562259_0" function="internal">
        <lane id=":138562259_0_0" index="0" disallow="tram rail_urban rail rail_electric rail_fast ship" speed="6.82" length="10.42" shape="669.07,1197.29 667.51,1194.88 667.14,1192.57 667.94,1190.38 669.93,1188.31"/>
    </edge>
    <edge id=":138562259_1" function="internal">
        <lane id=":138562259_1_0" index="0" disallow="tram rail_urban rail rail_electric rail_fast ship" speed="3.65" length="4.67" shape="671.90,1190.82 670.46,1190.94 669.66,1190.55 669.48,1189.68 669.93,1188.31"/>
    </edge>
    <edge id=":1552842714_0" function="internal">
        <lane id=":1552842714_0_0" index="0" disallow="pedestrian tram rail_urban rail rail_electric rail_fast ship" speed="12.40" length="7.25" shape="1878.91,909.56 1878.39,907.51 1878.30,906.03 1878.56,904.55 1879.08,902.46"/>
    </edge>
    <edge id=":1552842714_1" function="internal">
        <lane id=":1552842714_1_0" index="0" disallow="pedestrian tram rail_urban rail rail_electric rail_fast ship" speed="7.53" length="6.72" shape="1874.35,906.88 1876.16,906.02 1877.56,905.00 1878.53,903.81 1879.08,902.46"/>
    </edge>
    <edge id=":1552842722_0" function="internal">
        <lane id=":1552842722_0_0" index="0" disallow="pedestrian tram rail_urban rail rail_electric rail_fast ship" speed="8.89" length="6.92" shape="1883.13,915.72 1881.37,914.72 1880.01,914.24 1878.58,914.22 1876.59,914.60"/>
    </edge>
    <edge id=":1552842722_1" function="internal">
        <lane id=":1552842722_1_0" index="0" disallow="pedestrian tram rail_urban rail rail_electric rail_fast ship" speed="9.64" length="7.67" shape="1883.13,915.72 1881.29,914.47 1880.25,913.30 1879.60,911.83 1878.94,909.66"/>
    </edge>
    <edge id=":1552842725_0" function="internal">
        <lane id=":1552842725_0_0" index="0" disallow="pedestrian tram rail_urban rail rail_electric rail_fast ship" speed="13.89" length="3.92" shape="1862.30,916.61 1861.14,916.70 1860.35,916.79 1859.57,916.96 1858.46,917.30"/>
    </edge>
    <edge id=":1552842725_1" function="internal">
        <lane id=":1552842725_1_0" index="0" disallow="pedestrian tram rail_urban rail rail_electric rail_fast ship" speed="5.33" length="3.67" shape="1862.30,916.61 1858.88,916.61 1858.67,916.47"/>
    </edge>
    <edge id=":1552842725_4" function="internal">
        <lane id=":1552842725_4_0" index="0" disallow="pedestrian tram rail_urban rail rail_electric rail_fast ship" speed="5.33" length="7.10" shape="1858.67,916.47 1857.79,915.89 1859.02,914.46 1862.58,912.31"/>
    </edge>
    <edge id=":1552842725_2" function="internal">
        <lane id=":1552842725_2_0" index="0" disallow="pedestrian tram rail_urban rail rail_electric rail_fast ship" speed="13.89" length="5.46" shape="1857.48,914.25 1859.04,913.77 1860.10,913.45 1861.13,913.04 1862.58,912.31"/>
    </edge>
    <edge id=":1552842725_3" function="internal">
        <lane id=":1552842725_3_0" index="0" disallow="tram rail_urban rail rail_electric rail_fast ship" speed="3.65" length="1.44" shape="1857.48,914.25 1858.87,914.64"/>
    </edge>
    <edge id=":1552842725_5" function="internal">
        <lane id=":1552842725_5_0" index="0" disallow="tram rail_urban rail rail_electric rail_fast ship" speed="3.65" length="3.23" shape="1858.87,914.64 1859.49,915.28 1859.36,916.17 1858.46,917.30"/>
    </edge>
    <edge id=":1552842823_0" function="internal">
        <lane id=":1552842823_0_0" index="0" disallow="tram rail_urban rail rail_electric rail_fast ship" speed="13.89" length="1.23" shape="872.84,1438.06 873.57,1438.59"/>
        <lane id=":1552842823_0_1" index="1" disallow="tram rail_urban rail rail_electric rail_fast ship" speed="13.89" length="1.23" shape="874.84,1435.56 875.82,1436.31"/>
        <lane id=":1552842823_0_2" index="2" disallow="tram rail_urban rail rail_electric rail_fast ship" speed="13.89" length="1.23" shape="876.85,1433.07 878.07,1434.04"/>
    </edge>
    <edge id=":1560223241_0" function="internal">
        <lane id=":1560223241_0_0" index="0" disallow="pedestrian tram rail_urban rail rail_electric rail_fast ship" speed="13.89" length="0.36" shape="3965.00,447.12 3964.82,447.11"/>
        <lane id=":1560223241_0_1" index="1" disallow="pedestrian tram rail_urban rail rail_electric rail_fast ship" speed="13.89" length="0.36" shape="3965.37,443.94 3964.83,443.91"/>
    </edge>
    <edge id=":1560223241_2" function="internal">
        <lane id=":1560223241_2_0" index="0" disallow="pedestrian tram rail_urban rail rail_electric rail_fast ship" speed="13.89" length="1.08" shape="3964.85,437.51 3965.22,437.54 3965.47,437.59 3965.72,437.66 3966.09,437.73"/>
        <lane id=":1560223241_2_1" index="1" disallow="pedestrian tram rail_urban rail rail_electric rail_fast ship" speed="13.89" length="1.08" shape="3964.84,440.71 3965.10,440.74 3965.28,440.79 3965.46,440.85 3965.72,440.91"/>
    </edge>
    <edge id=":1560223301_0" function="internal">
        <lane id=":1560223301_0_0" index="0" disallow="pedestrian tram rail_urban rail rail_electric rail_fast ship" speed="13.89" length="0.19" shape="3346.46,505.30 3346.37,505.30"/>
        <lane id=":1560223301_0_1" index="1" disallow="pedestrian tram rail_urban rail rail_electric rail_fast ship" speed="13.89" length="0.19" shape="3346.30,502.10 3346.01,502.12"/>
    </edge>
    <edge id=":1560223301_2" function="internal">
        <lane id=":1560223301_2_0" index="0" disallow="pedestrian tram rail_urban rail rail_electric rail_fast ship" speed="13.89" length="0.57" shape="3345.30,495.76 3345.97,495.71"/>
        <lane id=":1560223301_2_1" index="1" disallow="pedestrian tram rail_urban rail rail_electric rail_fast ship" speed="13.89" length="0.57" shape="3345.66,498.94 3346.14,498.90"/>
    </edge>
    <edge id=":1560223378_0" function="internal">
        <lane id=":1560223378_0_0" index="0" disallow="pedestrian tram rail_urban rail rail_electric rail_fast ship" speed="13.89" length="0.35" shape="2940.72,557.66 2940.34,557.69"/>
        <lane id=":1560223378_0_1" index="1" disallow="pedestrian tram rail_urban rail rail_electric rail_fast ship" speed="13.89" length="0.35" shape="2940.40,554.48 2940.09,554.50"/>
    </edge>
    <edge id=":1560223378_2" function="internal">
        <lane id=":1560223378_2_0" index="0" disallow="pedestrian tram rail_urban rail rail_electric rail_fast ship" speed="13.89" length="0.21" shape="2939.59,548.12 2939.77,548.11"/>
        <lane id=":1560223378_2_1" index="1" disallow="pedestrian tram rail_urban rail rail_electric rail_fast ship" speed="13.89" length="0.21" shape="2939.84,551.31 2940.08,551.29"/>
    </edge>
    <edge id=":1560223468_0" function="internal">
        <lane id=":1560223468_0_0" index="0" disallow="pedestrian tram rail_urban rail rail_electric rail_fast ship" speed="13.89" length="7.48" shape="2714.66,576.24 2707.39,576.76"/>
        <lane id=":1560223468_0_1" index="1" disallow="pedestrian tram rail_urban rail rail_electric rail_fast ship" speed="13.89" length="7.48" shape="2714.72,573.04 2707.06,573.58"/>
    </edge>
    <edge id=":1560223468_2" function="internal">
        <lane id=":1560223468_2_0" index="0" disallow="pedestrian tram rail_urban rail rail_electric rail_fast ship" speed="13.89" length="8.80" shape="2706.40,567.22 2709.01,566.46 2710.64,565.26 2712.27,564.17 2714.88,563.73"/>
        <lane id=":1560223468_2_1" index="1" disallow="pedestrian tram rail_urban rail rail_electric rail_fast ship" speed="13.89" length="8.80" shape="2706.73,570.40 2709.23,569.65 2710.77,568.46 2712.32,567.37 2714.83,566.93"/>
        <lane id=":1560223468_2_2" index="2" disallow="pedestrian tram rail_urban rail rail_electric rail_fast ship" speed="13.89" length="8.80" shape="2706.73,570.40 2709.11,570.17 2710.74,570.08 2712.38,570.08 2714.77,570.13"/>
    </edge>
    <edge id=":1560223505_0" function="internal">
        <lane id=":1560223505_0_0" index="0" disallow="pedestrian tram rail_urban rail rail_electric rail_fast ship" speed="13.89" length="0.10" shape="4182.34,566.98 4182.31,566.95"/>
        <lane id=":1560223505_0_1" index="1" disallow="pedestrian tram rail_urban rail rail_electric rail_fast ship" speed="13.89" length="0.10" shape="4184.59,564.71 4184.49,564.61"/>
    </edge>
    <edge id=":1560223505_2" function="internal">
        <lane id=":1560223505_2_0" index="0" disallow="pedestrian tram rail_urban rail rail_electric rail_fast ship" speed="13.89" length="1.01" shape="4188.22,560.62 4189.09,560.16"/>
        <lane id=":1560223505_2_1" index="1" disallow="pedestrian tram rail_urban rail rail_electric rail_fast ship" speed="13.89" length="1.01" shape="4185.99,563.01 4186.84,562.44"/>
    </edge>
    <edge id=":1560223686_0" function="internal">
        <lane id=":1560223686_0_0" index="0" disallow="tram rail_urban rail rail_electric rail_fast ship" speed="13.89" length="8.35" shape="2807.77,762.95 2808.21,760.60 2809.23,759.09 2810.18,757.58 2810.42,755.24"/>
    </edge>
    <edge id=":1560223686_1" function="internal">
        <lane id=":1560223686_1_0" index="0" disallow="tram rail_urban rail rail_electric rail_fast ship" speed="13.89" length="8.29" shape="2813.60,754.91 2814.35,757.31 2815.57,758.75 2816.74,760.21 2817.32,762.62"/>
        <lane id=":1560223686_1_1" index="1" disallow="tram rail_urban rail rail_electric rail_fast ship" speed="13.89" length="8.29" shape="2813.60,754.91 2814.13,762.73"/>
    </edge>
    <edge id=":1568241305_0" function="internal">
        <lane id=":1568241305_0_0" index="0" disallow="tram rail_urban rail rail_electric rail_fast ship" speed="13.89" length="0.31" shape="2788.70,501.05 2788.67,500.74"/>
    </edge>
    <edge id=":1568241305_1" function="internal">
        <lane id=":1568241305_1_0" index="0" disallow="tram rail_urban rail rail_electric rail_fast ship" speed="13.89" length="0.22" shape="2791.86,500.50 2791.88,500.71"/>
    </edge>
    <edge id=":1569233656_0" function="internal">
        <lane id=":1569233656_0_0" index="0" disallow="tram rail_urban rail rail_electric rail_fast ship" speed="11.11" length="0.26" shape="2080.30,3545.29 2080.13,3545.12"/>
        <lane id=":1569233656_0_1" index="1" disallow="tram rail_urban rail rail_electric rail_fast ship" speed="11.11" length="0.26" shape="2082.61,3543.08 2082.42,3542.88"/>
    </edge>
    <edge id=":1569233656_2" function="internal">
        <lane id=":1569233656_2_0" index="0" disallow="tram rail_urban rail rail_electric rail_fast ship" speed="11.11" length="0.34" shape="2084.70,3540.63 2084.93,3540.88"/>
    </edge>
    <edge id=":158710664_0" function="internal">
        <lane id=":158710664_0_0" index="0" disallow="tram rail_urban rail rail_electric rail_fast ship" speed="13.89" length="18.39" shape="1886.39,761.39 1885.96,755.82 1885.97,751.97 1886.49,748.16 1887.59,742.67"/>