<?xml version="1.0" encoding="UTF-8"?>

<!-- generated on 2023-04-26 09:41:23 by Eclipse SUMO netgenerate Version 1.17.0
<configuration xmlns:xsi="http://www.w3.org/2001/XMLSchema-instance" xsi:noNamespaceSchemaLocation="http://sumo.dlr.de/xsd/netgenerateConfiguration.xsd">

    <grid_network>
        <grid value="true"/>
        <grid.x-number value="6"/>
        <grid.y-number value="4"/>
    </grid_network>

    <spider_network>
        <spider value="false"/>
    </spider_network>

    <random_network>
        <rand value="false"/>
        <rand.grid value="false"/>
    </random_network>

    <output>
        <output-file value="C:\erdm_ja\sip-svn-trunk\papers\DLR\SUMO_Conference2023\tutorial\04_run.final\grid.net.xml"/>
    </output>

    <processing>
        <random-lanenumber value="true"/>
    </processing>

    <building_defaults>
        <default.lanenumber value="2"/>
    </building_defaults>

</configuration>
-->

<net version="1.16" junctionCornerDetail="5" limitTurnSpeed="5.50" xmlns:xsi="http://www.w3.org/2001/XMLSchema-instance" xsi:noNamespaceSchemaLocation="http://sumo.dlr.de/xsd/net_file.xsd">

    <location netOffset="0.00,0.00" convBoundary="0.00,0.00,500.00,300.00" origBoundary="0.00,0.00,500.00,300.00" projParameter="!"/>

    <edge id=":A0_0" function="internal">
        <lane id=":A0_0_0" index="0" speed="9.84" length="21.99" shape="-4.80,10.40 -4.05,3.75 -1.80,-1.00 1.95,-3.85 7.20,-4.80"/>
        <lane id=":A0_0_1" index="1" speed="8.67" length="16.85" shape="-1.60,10.40 -1.05,5.15 0.60,1.40 3.35,-0.85 7.20,-1.60"/>
    </edge>
    <edge id=":A0_2" function="internal">
        <lane id=":A0_2_0" index="0" speed="6.51" length="9.03" shape="7.20,4.80 4.75,5.15 3.00,6.20 1.95,7.95 1.60,10.40"/>
    </edge>
    <edge id=":A1_0" function="internal">
        <lane id=":A1_0_0" index="0" speed="13.89" length="20.94" shape="-1.60,110.40 -2.10,106.45 -3.20,101.88 -4.30,96.37 -4.80,89.60"/>
        <lane id=":A1_0_1" index="1" speed="13.89" length="20.94" shape="-1.60,110.40 -1.60,89.60"/>
    </edge>
    <edge id=":A1_2" function="internal">
        <lane id=":A1_2_0" index="0" speed="9.26" length="19.35" shape="-1.60,110.40 -0.85,105.15 1.40,101.40 5.15,99.15 10.40,98.40"/>
    </edge>
    <edge id=":A1_3" function="internal">
        <lane id=":A1_3_0" index="0" speed="3.65" length="4.67" shape="-1.60,110.40 -0.80,109.20 0.00,108.80 0.80,109.20 1.60,110.40"/>
    </edge>
    <edge id=":A1_4" function="internal">
        <lane id=":A1_4_0" index="0" speed="6.51" length="9.03" shape="10.40,104.80 7.95,105.15 6.20,106.20 5.15,107.95 4.80,110.40"/>
        <lane id=":A1_4_1" index="1" speed="8.00" length="14.19" shape="10.40,101.60 6.55,102.15 3.80,103.80 2.15,106.55 1.60,110.40"/>
    </edge>
    <edge id=":A1_6" function="internal">
        <lane id=":A1_6_0" index="0" speed="9.26" length="19.35" shape="10.40,101.60 5.15,100.85 1.40,98.60 -0.85,94.85 -1.60,89.60"/>
    </edge>
    <edge id=":A1_7" function="internal">
        <lane id=":A1_7_0" index="0" speed="3.65" length="4.67" shape="10.40,101.60 9.20,100.80 8.80,100.00 9.20,99.20 10.40,98.40"/>
    </edge>
    <edge id=":A1_8" function="internal">
        <lane id=":A1_8_0" index="0" speed="7.33" length="11.73" shape="1.60,89.60 2.15,92.05 3.80,93.80 6.55,94.85 10.40,95.20"/>
    </edge>
    <edge id=":A1_9" function="internal">
        <lane id=":A1_9_0" index="0" speed="13.89" length="20.94" shape="1.60,89.60 2.10,93.55 3.20,98.12 4.30,103.63 4.80,110.40"/>
        <lane id=":A1_9_1" index="1" speed="13.89" length="20.94" shape="1.60,89.60 1.60,110.40"/>
    </edge>
    <edge id=":A1_11" function="internal">
        <lane id=":A1_11_0" index="0" speed="3.65" length="4.67" shape="1.60,89.60 0.80,90.80 0.00,91.20 -0.80,90.80 -1.60,89.60"/>
    </edge>
    <edge id=":A2_0" function="internal">
        <lane id=":A2_0_0" index="0" speed="13.89" length="17.95" shape="-4.80,210.40 -4.30,204.58 -3.20,200.12 -2.10,196.40 -1.60,192.80"/>
    </edge>
    <edge id=":A2_1" function="internal">
        <lane id=":A2_1_0" index="0" speed="9.26" length="8.24" shape="-1.60,210.40 -0.85,205.15 0.66,202.63"/>
    </edge>
    <edge id=":A2_2" function="internal">
        <lane id=":A2_2_0" index="0" speed="3.65" length="1.44" shape="-1.60,210.40 -0.80,209.20"/>
    </edge>
    <edge id=":A2_9" function="internal">
        <lane id=":A2_9_0" index="0" speed="9.26" length="11.12" shape="0.66,202.63 1.40,201.40 5.15,199.15 10.40,198.40"/>
    </edge>
    <edge id=":A2_10" function="internal">
        <lane id=":A2_10_0" index="0" speed="3.65" length="3.23" shape="-0.80,209.20 0.00,208.80 0.80,209.20 1.60,210.40"/>
    </edge>
    <edge id=":A2_3" function="internal">
        <lane id=":A2_3_0" index="0" speed="7.33" length="11.73" shape="10.40,204.80 6.55,205.15 3.80,206.20 2.15,207.95 1.60,210.40"/>
    </edge>
    <edge id=":A2_4" function="internal">
        <lane id=":A2_4_0" index="0" speed="8.67" length="16.85" shape="10.40,201.60 5.15,201.05 1.40,199.40 -0.85,196.65 -1.60,192.80"/>
    </edge>
    <edge id=":A2_5" function="internal">
        <lane id=":A2_5_0" index="0" speed="3.65" length="4.67" shape="10.40,201.60 9.20,200.80 8.80,200.00 9.20,199.20 10.40,198.40"/>
    </edge>
    <edge id=":A2_6" function="internal">
        <lane id=":A2_6_0" index="0" speed="6.51" length="9.03" shape="4.80,192.80 5.15,195.25 6.20,197.00 7.95,198.05 10.40,198.40"/>
    </edge>
    <edge id=":A2_7" function="internal">
        <lane id=":A2_7_0" index="0" speed="13.89" length="17.95" shape="4.80,192.80 4.30,198.62 3.20,203.08 2.10,206.80 1.60,210.40"/>
    </edge>
    <edge id=":A2_8" function="internal">
        <lane id=":A2_8_0" index="0" speed="3.65" length="1.44" shape="1.60,192.80 0.80,194.00"/>
    </edge>
    <edge id=":A2_11" function="internal">
        <lane id=":A2_11_0" index="0" speed="3.65" length="3.23" shape="0.80,194.00 0.00,194.40 -0.80,194.00 -1.60,192.80"/>
    </edge>
    <edge id=":A3_0" function="internal">
        <lane id=":A3_0_0" index="0" speed="7.66" length="12.90" shape="3.20,304.80 -0.30,304.30 -2.80,302.80 -4.30,300.30 -4.80,296.80"/>
        <lane id=":A3_0_1" index="1" speed="6.08" length="7.74" shape="3.20,301.60 1.10,301.30 -0.40,300.40 -1.30,298.90 -1.60,296.80"/>
    </edge>
    <edge id=":A3_2" function="internal">
        <lane id=":A3_2_0" index="0" speed="3.90" length="2.58" shape="1.60,296.80 1.70,297.50 2.00,298.00 2.50,298.30 3.20,298.40"/>
    </edge>
    <edge id=":B0_0" function="internal">
        <lane id=":B0_0_0" index="0" speed="6.51" length="9.03" shape="95.20,10.40 94.85,7.95 93.80,6.20 92.05,5.15 89.60,4.80"/>
    </edge>
    <edge id=":B0_1" function="internal">
        <lane id=":B0_1_0" index="0" speed="9.26" length="2.51" shape="98.40,10.40 98.76,7.91"/>
    </edge>
    <edge id=":B0_2" function="internal">
        <lane id=":B0_2_0" index="0" speed="3.65" length="1.30" shape="98.40,10.40 99.12,9.32"/>
    </edge>
    <edge id=":B0_11" function="internal">
        <lane id=":B0_11_0" index="0" speed="9.26" length="16.84" shape="98.76,7.91 99.15,5.15 101.40,1.40 105.15,-0.85 110.40,-1.60"/>
    </edge>
    <edge id=":B0_12" function="internal">
        <lane id=":B0_12_0" index="0" speed="3.65" length="3.37" shape="99.12,9.32 99.20,9.20 100.00,8.80 100.80,9.20 101.60,10.40"/>
    </edge>
    <edge id=":B0_3" function="internal">
        <lane id=":B0_3_0" index="0" speed="7.33" length="11.73" shape="110.40,1.60 107.95,2.15 106.20,3.80 105.15,6.55 104.80,10.40"/>
    </edge>
    <edge id=":B0_4" function="internal">
        <lane id=":B0_4_0" index="0" speed="13.89" length="20.94" shape="110.40,1.60 106.45,2.10 101.88,3.20 96.37,4.30 89.60,4.80"/>
        <lane id=":B0_4_1" index="1" speed="13.89" length="20.94" shape="110.40,1.60 89.60,1.60"/>
    </edge>
    <edge id=":B0_6" function="internal">
        <lane id=":B0_6_0" index="0" speed="3.65" length="4.67" shape="110.40,1.60 109.20,0.80 108.80,0.00 109.20,-0.80 110.40,-1.60"/>
    </edge>
    <edge id=":B0_7" function="internal">
        <lane id=":B0_7_0" index="0" speed="13.89" length="20.80" shape="89.60,-4.80 110.40,-4.80"/>
        <lane id=":B0_7_1" index="1" speed="13.89" length="20.80" shape="89.60,-1.60 110.40,-1.60"/>
    </edge>
    <edge id=":B0_9" function="internal">
        <lane id=":B0_9_0" index="0" speed="9.26" length="19.35" shape="89.60,-1.60 94.85,-0.85 98.60,1.40 100.85,5.15 101.60,10.40"/>
    </edge>
    <edge id=":B0_10" function="internal">
        <lane id=":B0_10_0" index="0" speed="3.65" length="2.34" shape="89.60,-1.60 90.80,-0.80 91.20,0.00"/>
    </edge>
    <edge id=":B0_13" function="internal">
        <lane id=":B0_13_0" index="0" speed="3.65" length="2.34" shape="91.20,0.00 90.80,0.80 89.60,1.60"/>
    </edge>
    <edge id=":B1_0" function="internal">
        <lane id=":B1_0_0" index="0" speed="7.33" length="11.73" shape="98.40,110.40 97.85,107.95 96.20,106.20 93.45,105.15 89.60,104.80"/>
    </edge>
    <edge id=":B1_1" function="internal">
        <lane id=":B1_1_0" index="0" speed="13.89" length="20.94" shape="98.40,110.40 97.90,106.45 96.80,101.88 95.70,96.37 95.20,89.60"/>
        <lane id=":B1_1_1" index="1" speed="13.89" length="20.94" shape="98.40,110.40 98.40,89.60"/>
    </edge>
    <edge id=":B1_3" function="internal">
        <lane id=":B1_3_0" index="0" speed="9.26" length="19.35" shape="98.40,110.40 99.15,105.15 101.40,101.40 105.15,99.15 110.40,98.40"/>
    </edge>
    <edge id=":B1_4" function="internal">
        <lane id=":B1_4_0" index="0" speed="3.65" length="4.67" shape="98.40,110.40 99.20,109.20 100.00,108.80 100.80,109.20 101.60,110.40"/>
    </edge>
    <edge id=":B1_5" function="internal">
        <lane id=":B1_5_0" index="0" speed="7.33" length="11.73" shape="110.40,104.80 106.55,105.15 103.80,106.20 102.15,107.95 101.60,110.40"/>
    </edge>
    <edge id=":B1_6" function="internal">
        <lane id=":B1_6_0" index="0" speed="13.89" length="20.80" shape="110.40,104.80 89.60,104.80"/>
        <lane id=":B1_6_1" index="1" speed="13.89" length="20.80" shape="110.40,101.60 89.60,101.60"/>
    </edge>
    <edge id=":B1_8" function="internal">
        <lane id=":B1_8_0" index="0" speed="9.26" length="7.32" shape="110.40,101.60 105.15,100.85 103.42,99.81"/>
    </edge>
    <edge id=":B1_9" function="internal">
        <lane id=":B1_9_0" index="0" speed="3.65" length="1.44" shape="110.40,101.60 109.20,100.80"/>
    </edge>
    <edge id=":B1_18" function="internal">
        <lane id=":B1_18_0" index="0" speed="9.26" length="12.03" shape="103.42,99.81 101.40,98.60 99.15,94.85 98.40,89.60"/>
    </edge>
    <edge id=":B1_19" function="internal">
        <lane id=":B1_19_0" index="0" speed="3.65" length="3.23" shape="109.20,100.80 108.80,100.00 109.20,99.20 110.40,98.40"/>
    </edge>
    <edge id=":B1_10" function="internal">
        <lane id=":B1_10_0" index="0" speed="7.33" length="11.73" shape="104.80,89.60 105.15,93.45 106.20,96.20 107.95,97.85 110.40,98.40"/>
    </edge>
    <edge id=":B1_11" function="internal">
        <lane id=":B1_11_0" index="0" speed="13.89" length="21.09" shape="104.80,89.60 104.30,96.37 103.20,101.88 102.10,106.45 101.60,110.40"/>
    </edge>
    <edge id=":B1_12" function="internal">
        <lane id=":B1_12_0" index="0" speed="9.26" length="19.35" shape="101.60,89.60 100.85,94.85 98.60,98.60 94.85,100.85 89.60,101.60"/>
    </edge>
    <edge id=":B1_13" function="internal">
        <lane id=":B1_13_0" index="0" speed="3.65" length="4.67" shape="101.60,89.60 100.80,90.80 100.00,91.20 99.20,90.80 98.40,89.60"/>
    </edge>
    <edge id=":B1_14" function="internal">
        <lane id=":B1_14_0" index="0" speed="6.51" length="9.03" shape="89.60,95.20 92.05,94.85 93.80,93.80 94.85,92.05 95.20,89.60"/>
    </edge>
    <edge id=":B1_15" function="internal">
        <lane id=":B1_15_0" index="0" speed="13.89" length="21.09" shape="89.60,95.20 96.37,95.70 101.88,96.80 106.45,97.90 110.40,98.40"/>
    </edge>
    <edge id=":B1_16" function="internal">
        <lane id=":B1_16_0" index="0" speed="9.26" length="5.01" shape="89.60,98.40 94.56,99.11"/>
    </edge>
    <edge id=":B1_17" function="internal">
        <lane id=":B1_17_0" index="0" speed="3.65" length="1.44" shape="89.60,98.40 90.80,99.20"/>
    </edge>
    <edge id=":B1_20" function="internal">
        <lane id=":B1_20_0" index="0" speed="9.26" length="14.34" shape="94.56,99.11 94.85,99.15 98.60,101.40 100.85,105.15 101.60,110.40"/>
    </edge>
    <edge id=":B1_21" function="internal">
        <lane id=":B1_21_0" index="0" speed="3.65" length="3.23" shape="90.80,99.20 91.20,100.00 90.80,100.80 89.60,101.60"/>
    </edge>
    <edge id=":B2_0" function="internal">
        <lane id=":B2_0_0" index="0" speed="6.51" length="9.03" shape="95.20,210.40 94.85,207.95 93.80,206.20 92.05,205.15 89.60,204.80"/>
    </edge>
    <edge id=":B2_1" function="internal">
        <lane id=":B2_1_0" index="0" speed="13.89" length="21.09" shape="95.20,210.40 95.70,203.63 96.80,198.12 97.90,193.55 98.40,189.60"/>
    </edge>
    <edge id=":B2_2" function="internal">
        <lane id=":B2_2_0" index="0" speed="8.67" length="16.85" shape="98.40,210.40 98.95,205.15 100.60,201.40 103.35,199.15 107.20,198.40"/>
    </edge>
    <edge id=":B2_3" function="internal">
        <lane id=":B2_3_0" index="0" speed="3.65" length="1.44" shape="98.40,210.40 99.20,209.20"/>
    </edge>
    <edge id=":B2_18" function="internal">
        <lane id=":B2_18_0" index="0" speed="3.65" length="3.23" shape="99.20,209.20 100.00,208.80 100.80,209.20 101.60,210.40"/>
    </edge>
    <edge id=":B2_4" function="internal">
        <lane id=":B2_4_0" index="0" speed="6.51" length="9.03" shape="107.20,204.80 104.75,205.15 103.00,206.20 101.95,207.95 101.60,210.40"/>
    </edge>
    <edge id=":B2_5" function="internal">
        <lane id=":B2_5_0" index="0" speed="13.89" length="17.60" shape="107.20,204.80 89.60,204.80"/>
        <lane id=":B2_5_1" index="1" speed="13.89" length="17.60" shape="107.20,201.60 89.60,201.60"/>
    </edge>
    <edge id=":B2_7" function="internal">
        <lane id=":B2_7_0" index="0" speed="8.67" length="1.88" shape="107.20,201.60 105.35,201.24"/>
    </edge>
    <edge id=":B2_8" function="internal">
        <lane id=":B2_8_0" index="0" speed="3.65" length="1.26" shape="107.20,201.60 106.15,200.90"/>
    </edge>
    <edge id=":B2_19" function="internal">
        <lane id=":B2_19_0" index="0" speed="8.67" length="14.97" shape="105.35,201.24 103.35,200.85 100.60,198.60 98.95,194.85 98.40,189.60"/>
    </edge>
    <edge id=":B2_20" function="internal">
        <lane id=":B2_20_0" index="0" speed="3.65" length="3.41" shape="106.15,200.90 106.00,200.80 105.60,200.00 106.00,199.20 107.20,198.40"/>
    </edge>
    <edge id=":B2_9" function="internal">
        <lane id=":B2_9_0" index="0" speed="6.51" length="9.03" shape="101.60,189.60 101.95,192.05 103.00,193.80 104.75,194.85 107.20,195.20"/>
    </edge>
    <edge id=":B2_10" function="internal">
        <lane id=":B2_10_0" index="0" speed="13.89" length="20.80" shape="101.60,189.60 101.60,210.40"/>
    </edge>
    <edge id=":B2_11" function="internal">
        <lane id=":B2_11_0" index="0" speed="9.26" length="19.35" shape="101.60,189.60 100.85,194.85 98.60,198.60 94.85,200.85 89.60,201.60"/>
    </edge>
    <edge id=":B2_12" function="internal">
        <lane id=":B2_12_0" index="0" speed="3.65" length="4.67" shape="101.60,189.60 100.80,190.80 100.00,191.20 99.20,190.80 98.40,189.60"/>
    </edge>
    <edge id=":B2_13" function="internal">
        <lane id=":B2_13_0" index="0" speed="8.00" length="14.19" shape="89.60,198.40 93.45,197.85 96.20,196.20 97.85,193.45 98.40,189.60"/>
    </edge>
    <edge id=":B2_14" function="internal">
        <lane id=":B2_14_0" index="0" speed="13.89" length="17.77" shape="89.60,198.40 93.20,197.90 96.92,196.80 101.38,195.70 107.20,195.20"/>
        <lane id=":B2_14_1" index="1" speed="13.89" length="17.77" shape="89.60,198.40 107.20,198.40"/>
    </edge>
    <edge id=":B2_16" function="internal">
        <lane id=":B2_16_0" index="0" speed="9.26" length="19.35" shape="89.60,198.40 94.85,199.15 98.60,201.40 100.85,205.15 101.60,210.40"/>
    </edge>
    <edge id=":B2_17" function="internal">
        <lane id=":B2_17_0" index="0" speed="3.65" length="4.67" shape="89.60,198.40 90.80,199.20 91.20,200.00 90.80,200.80 89.60,201.60"/>
    </edge>
    <edge id=":B3_0" function="internal">
        <lane id=":B3_0_0" index="0" speed="13.89" length="17.60" shape="107.20,304.80 89.60,304.80"/>
        <lane id=":B3_0_1" index="1" speed="13.89" length="17.60" shape="107.20,301.60 89.60,301.60"/>
    </edge>
    <edge id=":B3_2" function="internal">
        <lane id=":B3_2_0" index="0" speed="8.67" length="3.71" shape="107.20,301.60 103.56,300.89"/>
    </edge>
    <edge id=":B3_3" function="internal">
        <lane id=":B3_3_0" index="0" speed="3.65" length="1.44" shape="107.20,301.60 106.00,300.80"/>
    </edge>
    <edge id=":B3_10" function="internal">
        <lane id=":B3_10_0" index="0" speed="8.67" length="13.14" shape="103.56,300.89 103.35,300.85 100.60,298.60 98.95,294.85 98.40,289.60"/>
    </edge>
    <edge id=":B3_11" function="internal">
        <lane id=":B3_11_0" index="0" speed="3.65" length="3.23" shape="106.00,300.80 105.60,300.00 106.00,299.20 107.20,298.40"/>
    </edge>
    <edge id=":B3_4" function="internal">
        <lane id=":B3_4_0" index="0" speed="6.51" length="9.03" shape="101.60,289.60 101.95,292.05 103.00,293.80 104.75,294.85 107.20,295.20"/>
    </edge>
    <edge id=":B3_5" function="internal">
        <lane id=":B3_5_0" index="0" speed="9.26" length="19.35" shape="101.60,289.60 100.85,294.85 98.60,298.60 94.85,300.85 89.60,301.60"/>
    </edge>
    <edge id=":B3_6" function="internal">
        <lane id=":B3_6_0" index="0" speed="3.65" length="4.67" shape="101.60,289.60 100.80,290.80 100.00,291.20 99.20,290.80 98.40,289.60"/>
    </edge>
    <edge id=":B3_7" function="internal">
        <lane id=":B3_7_0" index="0" speed="7.33" length="11.73" shape="89.60,298.40 92.05,297.85 93.80,296.20 94.85,293.45 95.20,289.60"/>
    </edge>
    <edge id=":B3_8" function="internal">
        <lane id=":B3_8_0" index="0" speed="13.89" length="17.60" shape="89.60,298.40 107.20,298.40"/>
    </edge>
    <edge id=":B3_9" function="internal">
        <lane id=":B3_9_0" index="0" speed="3.65" length="1.44" shape="89.60,298.40 90.80,299.20"/>
    </edge>
    <edge id=":B3_12" function="internal">
        <lane id=":B3_12_0" index="0" speed="3.65" length="3.23" shape="90.80,299.20 91.20,300.00 90.80,300.80 89.60,301.60"/>
    </edge>
    <edge id=":C0_0" function="internal">
        <lane id=":C0_0_0" index="0" speed="7.33" length="11.73" shape="198.40,10.40 198.05,6.55 197.00,3.80 195.25,2.15 192.80,1.60"/>
    </edge>
    <edge id=":C0_1" function="internal">
        <lane id=":C0_1_0" index="0" speed="8.67" length="16.85" shape="198.40,10.40 198.95,5.15 200.60,1.40 203.35,-0.85 207.20,-1.60"/>
    </edge>
    <edge id=":C0_2" function="internal">
        <lane id=":C0_2_0" index="0" speed="3.65" length="4.67" shape="198.40,10.40 199.20,9.20 200.00,8.80 200.80,9.20 201.60,10.40"/>
    </edge>
    <edge id=":C0_3" function="internal">
        <lane id=":C0_3_0" index="0" speed="6.51" length="9.03" shape="207.20,4.80 204.75,5.15 203.00,6.20 201.95,7.95 201.60,10.40"/>
    </edge>
    <edge id=":C0_4" function="internal">
        <lane id=":C0_4_0" index="0" speed="13.89" length="14.83" shape="207.20,4.80 202.54,4.30 199.11,3.20 196.12,2.10 192.80,1.60"/>
    </edge>
    <edge id=":C0_5" function="internal">
        <lane id=":C0_5_0" index="0" speed="3.65" length="1.44" shape="207.20,1.60 206.00,0.80"/>
    </edge>
    <edge id=":C0_10" function="internal">
        <lane id=":C0_10_0" index="0" speed="3.65" length="3.23" shape="206.00,0.80 205.60,0.00 206.00,-0.80 207.20,-1.60"/>
    </edge>
    <edge id=":C0_6" function="internal">
        <lane id=":C0_6_0" index="0" speed="13.89" length="14.40" shape="192.80,-4.80 207.20,-4.80"/>
        <lane id=":C0_6_1" index="1" speed="13.89" length="14.40" shape="192.80,-1.60 207.20,-1.60"/>
    </edge>
    <edge id=":C0_8" function="internal">
        <lane id=":C0_8_0" index="0" speed="8.67" length="5.00" shape="192.80,-1.60 196.65,-0.85 197.48,-0.17"/>
    </edge>
    <edge id=":C0_9" function="internal">
        <lane id=":C0_9_0" index="0" speed="3.65" length="1.44" shape="192.80,-1.60 194.00,-0.80"/>
    </edge>
    <edge id=":C0_11" function="internal">
        <lane id=":C0_11_0" index="0" speed="8.67" length="11.85" shape="197.48,-0.17 199.40,1.40 201.05,5.15 201.60,10.40"/>
    </edge>
    <edge id=":C0_12" function="internal">
        <lane id=":C0_12_0" index="0" speed="3.65" length="3.23" shape="194.00,-0.80 194.40,0.00 194.00,0.80 192.80,1.60"/>
    </edge>
    <edge id=":C1_0" function="internal">
        <lane id=":C1_0_0" index="0" speed="6.51" length="9.03" shape="195.20,110.40 194.85,107.95 193.80,106.20 192.05,105.15 189.60,104.80"/>
    </edge>
    <edge id=":C1_1" function="internal">
        <lane id=":C1_1_0" index="0" speed="13.89" length="17.95" shape="195.20,110.40 195.70,104.58 196.80,100.12 197.90,96.40 198.40,92.80"/>
    </edge>
    <edge id=":C1_2" function="internal">
        <lane id=":C1_2_0" index="0" speed="8.67" length="16.85" shape="198.40,110.40 198.95,105.15 200.60,101.40 203.35,99.15 207.20,98.40"/>
    </edge>
    <edge id=":C1_3" function="internal">
        <lane id=":C1_3_0" index="0" speed="3.65" length="1.44" shape="198.40,110.40 199.20,109.20"/>
    </edge>
    <edge id=":C1_17" function="internal">
        <lane id=":C1_17_0" index="0" speed="3.65" length="3.23" shape="199.20,109.20 200.00,108.80 200.80,109.20 201.60,110.40"/>
    </edge>
    <edge id=":C1_4" function="internal">
        <lane id=":C1_4_0" index="0" speed="6.51" length="9.03" shape="207.20,104.80 204.75,105.15 203.00,106.20 201.95,107.95 201.60,110.40"/>
    </edge>
    <edge id=":C1_5" function="internal">
        <lane id=":C1_5_0" index="0" speed="13.89" length="17.60" shape="207.20,104.80 189.60,104.80"/>
        <lane id=":C1_5_1" index="1" speed="13.89" length="17.60" shape="207.20,101.60 189.60,101.60"/>
    </edge>
    <edge id=":C1_7" function="internal">
        <lane id=":C1_7_0" index="0" speed="8.00" length="2.11" shape="207.20,101.60 205.12,101.30"/>
    </edge>
    <edge id=":C1_8" function="internal">
        <lane id=":C1_8_0" index="0" speed="3.65" length="1.26" shape="207.20,101.60 206.15,100.90"/>
    </edge>
    <edge id=":C1_18" function="internal">
        <lane id=":C1_18_0" index="0" speed="8.00" length="12.09" shape="205.12,101.30 203.35,101.05 200.60,99.40 198.95,96.65 198.40,92.80"/>
    </edge>
    <edge id=":C1_19" function="internal">
        <lane id=":C1_19_0" index="0" speed="3.65" length="3.41" shape="206.15,100.90 206.00,100.80 205.60,100.00 206.00,99.20 207.20,98.40"/>
    </edge>
    <edge id=":C1_9" function="internal">
        <lane id=":C1_9_0" index="0" speed="6.51" length="9.03" shape="201.60,92.80 201.95,95.25 203.00,97.00 204.75,98.05 207.20,98.40"/>
    </edge>
    <edge id=":C1_10" function="internal">
        <lane id=":C1_10_0" index="0" speed="13.89" length="17.60" shape="201.60,92.80 201.60,110.40"/>
    </edge>
    <edge id=":C1_11" function="internal">
        <lane id=":C1_11_0" index="0" speed="8.67" length="16.85" shape="201.60,92.80 200.85,96.65 198.60,99.40 194.85,101.05 189.60,101.60"/>
    </edge>
    <edge id=":C1_12" function="internal">
        <lane id=":C1_12_0" index="0" speed="3.65" length="4.67" shape="201.60,92.80 200.80,94.00 200.00,94.40 199.20,94.00 198.40,92.80"/>
    </edge>
    <edge id=":C1_13" function="internal">
        <lane id=":C1_13_0" index="0" speed="7.33" length="11.73" shape="189.60,98.40 193.45,98.05 196.20,97.00 197.85,95.25 198.40,92.80"/>
    </edge>
    <edge id=":C1_14" function="internal">
        <lane id=":C1_14_0" index="0" speed="13.89" length="17.60" shape="189.60,98.40 207.20,98.40"/>
    </edge>
    <edge id=":C1_15" function="internal">
        <lane id=":C1_15_0" index="0" speed="9.26" length="19.35" shape="189.60,98.40 194.85,99.15 198.60,101.40 200.85,105.15 201.60,110.40"/>
    </edge>
    <edge id=":C1_16" function="internal">
        <lane id=":C1_16_0" index="0" speed="3.65" length="4.67" shape="189.60,98.40 190.80,99.20 191.20,100.00 190.80,100.80 189.60,101.60"/>
    </edge>
    <edge id=":C2_0" function="internal">
        <lane id=":C2_0_0" index="0" speed="7.33" length="11.73" shape="198.40,210.40 197.85,207.95 196.20,206.20 193.45,205.15 189.60,204.80"/>
    </edge>
    <edge id=":C2_1" function="internal">
        <lane id=":C2_1_0" index="0" speed="13.89" length="20.94" shape="198.40,210.40 197.90,206.45 196.80,201.88 195.70,196.37 195.20,189.60"/>
        <lane id=":C2_1_1" index="1" speed="13.89" length="20.94" shape="198.40,210.40 198.40,189.60"/>
    </edge>
    <edge id=":C2_3" function="internal">
        <lane id=":C2_3_0" index="0" speed="8.67" length="16.85" shape="198.40,210.40 198.95,205.15 200.60,201.40 203.35,199.15 207.20,198.40"/>
    </edge>
    <edge id=":C2_4" function="internal">
        <lane id=":C2_4_0" index="0" speed="3.65" length="4.67" shape="198.40,210.40 199.20,209.20 200.00,208.80 200.80,209.20 201.60,210.40"/>
    </edge>
    <edge id=":C2_5" function="internal">
        <lane id=":C2_5_0" index="0" speed="6.51" length="9.03" shape="207.20,204.80 204.75,205.15 203.00,206.20 201.95,207.95 201.60,210.40"/>
    </edge>
    <edge id=":C2_6" function="internal">
        <lane id=":C2_6_0" index="0" speed="13.89" length="17.60" shape="207.20,204.80 189.60,204.80"/>
        <lane id=":C2_6_1" index="1" speed="13.89" length="17.60" shape="207.20,201.60 189.60,201.60"/>
    </edge>
    <edge id=":C2_8" function="internal">
        <lane id=":C2_8_0" index="0" speed="8.67" length="3.71" shape="207.20,201.60 203.56,200.89"/>
    </edge>
    <edge id=":C2_9" function="internal">
        <lane id=":C2_9_0" index="0" speed="3.65" length="1.44" shape="207.20,201.60 206.00,200.80"/>
    </edge>
    <edge id=":C2_19" function="internal">
        <lane id=":C2_19_0" index="0" speed="8.67" length="13.14" shape="203.56,200.89 203.35,200.85 200.60,198.60 198.95,194.85 198.40,189.60"/>
    </edge>
    <edge id=":C2_20" function="internal">
        <lane id=":C2_20_0" index="0" speed="3.65" length="3.23" shape="206.00,200.80 205.60,200.00 206.00,199.20 207.20,198.40"/>
    </edge>
    <edge id=":C2_10" function="internal">
        <lane id=":C2_10_0" index="0" speed="6.51" length="9.03" shape="201.60,189.60 201.95,192.05 203.00,193.80 204.75,194.85 207.20,195.20"/>
    </edge>
    <edge id=":C2_11" function="internal">
        <lane id=":C2_11_0" index="0" speed="13.89" length="20.80" shape="201.60,189.60 201.60,210.40"/>
    </edge>
    <edge id=":C2_12" function="internal">
        <lane id=":C2_12_0" index="0" speed="9.26" length="19.35" shape="201.60,189.60 200.85,194.85 198.60,198.60 194.85,200.85 189.60,201.60"/>
    </edge>
    <edge id=":C2_13" function="internal">
        <lane id=":C2_13_0" index="0" speed="3.65" length="4.67" shape="201.60,189.60 200.80,190.80 200.00,191.20 199.20,190.80 198.40,189.60"/>
    </edge>
    <edge id=":C2_14" function="internal">
        <lane id=":C2_14_0" index="0" speed="6.51" length="9.03" shape="189.60,195.20 192.05,194.85 193.80,193.80 194.85,192.05 195.20,189.60"/>
    </edge>
    <edge id=":C2_15" function="internal">
        <lane id=":C2_15_0" index="0" speed="13.89" length="17.60" shape="189.60,195.20 207.20,195.20"/>
        <lane id=":C2_15_1" index="1" speed="13.89" length="17.60" shape="189.60,198.40 207.20,198.40"/>
    </edge>
    <edge id=":C2_17" function="internal">
        <lane id=":C2_17_0" index="0" speed="9.26" length="5.01" shape="189.60,198.40 194.56,199.11"/>
    </edge>
    <edge id=":C2_18" function="internal">
        <lane id=":C2_18_0" index="0" speed="3.65" length="1.44" shape="189.60,198.40 190.80,199.20"/>
    </edge>
    <edge id=":C2_21" function="internal">
        <lane id=":C2_21_0" index="0" speed="9.26" length="14.34" shape="194.56,199.11 194.85,199.15 198.60,201.40 200.85,205.15 201.60,210.40"/>
    </edge>
    <edge id=":C2_22" function="internal">
        <lane id=":C2_22_0" index="0" speed="3.65" length="3.23" shape="190.80,199.20 191.20,200.00 190.80,200.80 189.60,201.60"/>
    </edge>
    <edge id=":C3_0" function="internal">
        <lane id=":C3_0_0" index="0" speed="13.89" length="14.40" shape="207.20,304.80 192.80,304.80"/>
        <lane id=":C3_0_1" index="1" speed="13.89" length="14.40" shape="207.20,301.60 192.80,301.60"/>
    </edge>
    <edge id=":C3_2" function="internal">
        <lane id=":C3_2_0" index="0" speed="8.67" length="5.00" shape="207.20,301.60 203.35,300.85 202.52,300.17"/>
    </edge>
    <edge id=":C3_3" function="internal">
        <lane id=":C3_3_0" index="0" speed="3.65" length="1.44" shape="207.20,301.60 206.00,300.80"/>
    </edge>
    <edge id=":C3_10" function="internal">
        <lane id=":C3_10_0" index="0" speed="8.67" length="11.85" shape="202.52,300.17 200.60,298.60 198.95,294.85 198.40,289.60"/>
    </edge>
    <edge id=":C3_11" function="internal">
        <lane id=":C3_11_0" index="0" speed="3.65" length="3.23" shape="206.00,300.80 205.60,300.00 206.00,299.20 207.20,298.40"/>
    </edge>
    <edge id=":C3_4" function="internal">
        <lane id=":C3_4_0" index="0" speed="7.33" length="11.73" shape="201.60,289.60 201.95,293.45 203.00,296.20 204.75,297.85 207.20,298.40"/>
    </edge>
    <edge id=":C3_5" function="internal">
        <lane id=":C3_5_0" index="0" speed="8.67" length="16.85" shape="201.60,289.60 201.05,294.85 199.40,298.60 196.65,300.85 192.80,301.60"/>
    </edge>
    <edge id=":C3_6" function="internal">
        <lane id=":C3_6_0" index="0" speed="3.65" length="4.67" shape="201.60,289.60 200.80,290.80 200.00,291.20 199.20,290.80 198.40,289.60"/>
    </edge>