<?xml version="1.0" encoding="UTF-8"?>
<!-- generated on 2021-09-10 11:50:07.857143 by gtfs2pt.py v1_10_0+0661-0e4e616c0dc
  options: -n osm.net.xml <doubleminus>gtfs GTFS.zip <doubleminus>date 20211206 <doubleminus>osm-routes osm_ptlines.xml <doubleminus>repair
-->
<routes xmlns:xsi="http://www.w3.org/2001/XMLSchema-instance" xsi:noNamespaceSchemaLocation="http://sumo.dlr.de/xsd/routes_file.xsd">
    <route id="12218" edges="385981675#1 158236729#1 158236729#2 158236729#3 158236729#4 158236729#5 158236729#6 158236729#8 158236729#9 220198808#1 220198808#4 220198808#5 220198808#6 220198808#9 220198808#12 158236381 220194458#3 806903753 218797686#0 386046454#4"/>
    <vehicle id="63_146327802.0" route="12218" line="17420_900_146327802" depart="0:00:15:00" departEdge="0" arrivalEdge="15" type="tram"><!--63 Berlin  Betriebshof Köpenick-->
        <stop busStop="070301008871_0" arrival="0:00:15:00" duration="10" until="0:00:15:00"/><!--Berlin  Karl-Ziegler-Str.-->
        <stop busStop="070301008872_0" arrival="0:00:16:00" duration="10" until="0:00:16:00"/><!--Berlin  Magnusstr.-->
        <stop busStop="070301008873_0" arrival="0:00:17:00" duration="10" until="0:00:17:00"/><!--Berlin  Walther-Nernst-Str.-->
        <stop busStop="070301008874_0" arrival="0:00:19:00" duration="10" until="0:00:19:00"/><!--S Adlershof (Berlin)-->
    </vehicle>
    <route id="11826" edges="206889086#1 541676219 318210389#0 670062912#1 81639675#1 81639675#2 81639675#3 81639675#4 -318210361#2 -318210361#0 -314415495#25 -314415495#22 -314415495#21 -314415495#19 -314415495#17 -314415495#16 -314415495#15 -314415495#14 -314415495#13 -314415495#12 -314415495#11 -314415495#10 -314415495#9 -314415495#8 -314415495#7 -314415495#6 -314415495#5 -314415495#4 -314415495#3 -314415495#1 -314415495#0 -81639685#2 48858192#1 318210388#0 -318210386#1 -81639678#0 -12749623 -318210387 -375685718#1 -375685718#0 -144909690"/>
    <vehicle id="260_146800432.0" route="11826" line="17370_700_146800432" depart="0:00:18:00" departEdge="0" arrivalEdge="40" type="bus"><!--260 Am Hanffgraben-->
        <stop busStop="070101006330_0" arrival="0:00:18:00" duration="10" until="0:00:18:00"/><!--S Adlershof (Berlin)-->
        <stop busStop="070101006921_0" arrival="0:00:21:00" duration="10" until="0:00:21:00"/><!--Berlin  Albert-Einstein-Str.-->
        <stop busStop="070101005598_0" arrival="0:00:22:00" duration="10" until="0:00:22:00"/><!--Berlin  Wilhelm-Ostwald-Str.-->
        <stop busStop="070101006607_0" arrival="0:00:23:00" duration="10" until="0:00:23:00"/><!--Berlin  Am Studio Köpenicker Str.-->
        <stop busStop="070101006523_0" arrival="0:00:24:00" duration="10" until="0:00:24:00"/><!--Berlin  Altglienicker Brücke-->
        <stop busStop="070101006582_0" arrival="0:00:25:00" duration="10" until="0:00:25:00"/><!--Berlin  Altglienicke Kirche-->
    </vehicle>
    <route id="11145" edges="-23913524#4 -23913524#3 -23913524#2 -23913524#1 -23913524#0 137534616#0 137534616#1 137534616#2 137534616#3 137534616#4 166142951#0 166142951#1 149611526#0 149611526#1 40191606#0 40191606#2 40191606#3 414563781 206889086#1 541676219 318210389#0 670062912#1 81639675#1 81639675#2 81639675#3 81639675#4 670062909#1 670062908#1 670062907#1 670062907#2 670062907#4 677933664#4 143308546#0 143308546#1 143308546#3 143308546#7 143308546#8 670062902#2 143308587#1 24214694#3 24214694#4 24214694#5 190083618#0 -283317455#1 -143308570 -318210395 -190083616 46150481#0 46150481#1"/>
    <vehicle id="162_146304580.0" route="11145" line="17327_700_146304580" depart="0:00:18:00" departEdge="18" arrivalEdge="48" type="bus"><!--162 U Rudow-->
        <stop busStop="070101006330_0" arrival="0:00:20:00" duration="10" until="0:00:20:00"/><!--S Adlershof (Berlin)-->
        <stop busStop="070101005829_0" arrival="0:00:21:00" duration="10" until="0:00:21:00"/><!--Berlin  Walther-Nernst-Str.-->
        <stop busStop="070101005664_0" arrival="0:00:22:00" duration="10" until="0:00:22:00"/><!--Berlin  Magnusstr.-->
        <stop busStop="070101006470_0" arrival="0:00:23:00" duration="10" until="0:00:23:00"/><!--Berlin  Rudower Chaussee Wegedornstr.-->
        <stop busStop="070101006896_0" arrival="0:00:24:00" duration="10" until="0:00:24:00"/><!--Berlin  Wegedornstr. Semmelweisstr.-->
        <stop busStop="070101006292_0" arrival="0:00:25:00" duration="10" until="0:00:25:00"/><!--Berlin  Werderlake-->
    </vehicle>
    <vehicle id="63_146327803.0" route="12218" line="17420_900_146327802" depart="0:00:35:00" departEdge="0" arrivalEdge="15" type="tram"><!--63 Berlin  Betriebshof Köpenick-->
        <stop busStop="070301008871_0" arrival="0:00:35:00" duration="10" until="0:00:35:00"/><!--Berlin  Karl-Ziegler-Str.-->
        <stop busStop="070301008872_0" arrival="0:00:36:00" duration="10" until="0:00:36:00"/><!--Berlin  Magnusstr.-->
        <stop busStop="070301008873_0" arrival="0:00:37:00" duration="10" until="0:00:37:00"/><!--Berlin  Walther-Nernst-Str.-->
        <stop busStop="070301008874_0" arrival="0:00:39:00" duration="10" until="0:00:39:00"/><!--S Adlershof (Berlin)-->
    </vehicle>
    <vehicle id="162_146304581.0" route="11145" line="17327_700_146304580" depart="0:00:38:00" departEdge="18" arrivalEdge="48" type="bus"><!--162 U Rudow-->
        <stop busStop="070101006330_0" arrival="0:00:40:00" duration="10" until="0:00:40:00"/><!--S Adlershof (Berlin)-->
        <stop busStop="070101005829_0" arrival="0:00:41:00" duration="10" until="0:00:41:00"/><!--Berlin  Walther-Nernst-Str.-->
        <stop busStop="070101005664_0" arrival="0:00:42:00" duration="10" until="0:00:42:00"/><!--Berlin  Magnusstr.-->
        <stop busStop="070101006470_0" arrival="0:00:43:00" duration="10" until="0:00:43:00"/><!--Berlin  Rudower Chaussee Wegedornstr.-->
        <stop busStop="070101006896_0" arrival="0:00:44:00" duration="10" until="0:00:44:00"/><!--Berlin  Wegedornstr. Semmelweisstr.-->
        <stop busStop="070101006292_0" arrival="0:00:45:00" duration="10" until="0:00:45:00"/><!--Berlin  Werderlake-->
    </vehicle>
    <route id="13003" edges="318210355 206889086#1 541676219 318210389#0 670062912#1 81639675#1 81639675#2 81639675#3 81639675#4 670062909#1 670062908#1 670062907#1 670062907#2 670062907#4 677933664#4 143308546#0 143308546#1 143308546#3 143308546#7 143308546#8 670062902#2 143308587#1 24214694#3 24214694#4 24214694#5 190083618#0 -283317455#1 -143308570 -318210395 -190083616 46150481#0 46150481#1"/>
    <vehicle id="N60_146349478.0" route="13003" line="17494_700_146349478" depart="0:00:48:00" departEdge="1" arrivalEdge="31" type="bus"><!--N60 Flughafen BER - Terminal 1-2-->
        <stop busStop="070101006330_0" arrival="0:00:48:00" duration="10" until="0:00:48:00"/><!--S Adlershof (Berlin)-->
        <stop busStop="070101005829_0" arrival="0:00:49:00" duration="10" until="0:00:49:00"/><!--Berlin  Walther-Nernst-Str.-->
        <stop busStop="070101005664_0" arrival="0:00:49:30" duration="10" until="0:00:49:30"/><!--Berlin  Magnusstr.-->
        <stop busStop="070101006470_0" arrival="0:00:50:00" duration="10" until="0:00:50:00"/><!--Berlin  Rudower Chaussee Wegedornstr.-->
        <stop busStop="070101006896_0" arrival="0:00:51:00" duration="10" until="0:00:51:00"/><!--Berlin  Wegedornstr. Semmelweisstr.-->
        <stop busStop="070101006897_0" arrival="0:00:52:00" duration="10" until="0:00:52:00"/><!--Berlin  Am Kiesberg-->
    </vehicle>
    <route id="13631" edges="52036180#3 -679901152#1 -45875465 152839428 -152839426 -166142947 -178028204#9 -178028204#4 -178028204#3 -178028204#2 -178028204#1 -178028204#0"/>
    <vehicle id="N64_146349562.0" route="13631" line="22674_700_146349562" depart="0:00:51:00" departEdge="0" arrivalEdge="10" type="bus"><!--N64 S+U Wuhletal-->
        <stop busStop="070101005663_0" arrival="0:00:51:00" duration="10" until="0:00:51:00"/><!--S Adlershof (Berlin)-->
        <stop busStop="070101006843_0" arrival="0:00:52:00" duration="10" until="0:00:52:00"/><!--S Adlershof (Berlin)-->
        <stop busStop="070101006928_0" arrival="0:00:52:30" duration="10" until="0:00:52:30"/><!--Berlin  Anna-Seghers-Str.-->
        <stop busStop="070101006901_0" arrival="0:00:53:00" duration="10" until="0:00:53:00"/><!--Berlin  Marktplatz Adlershof-->
    </vehicle>
    <route id="13053" edges="52036180#3 72230304#1 461514282#0 461514282#1 204721578#0 977639651#1 153021553 318210353 207086005 977639652 318210360#0 39969574#2"/>
    <vehicle id="N68_146349641.0" route="13053" line="17499_700_146349641" depart="0:00:52:00" departEdge="0" arrivalEdge="10" type="bus"><!--N68 Berlin  Alt-Schmöckwitz-->
        <stop busStop="070101006843_0" arrival="0:00:52:00" duration="10" until="0:00:52:00"/><!--S Adlershof (Berlin)-->
        <stop busStop="070101006289_0" arrival="0:00:53:00" duration="10" until="0:00:53:00"/><!--Berlin  Otto-Franke-Str.-->
        <stop busStop="070101007230_0" arrival="0:00:53:30" duration="10" until="0:00:53:30"/><!--Berlin  Adlergestell Glienicker Weg-->
    </vehicle>
    <route id="13006" edges="81096611#0 81096611#1 81096611#2 169076556#0 169076556#1 169076556#2 169076556#3 190083616 318210395 143308570 283317455#0 -190083618#1 -24214694#5 -24214694#4 -24214694#3 143308590#0 143308542#1 143308542#3 143308542#4 143308542#6 143308542#8 143308542#12 143308542#13 143308542#14 143308542#15 143308552#1 143308549#1 143308549#2 143308549#3 976351540#1 52036180#1 52036180#3 40191607#2 40191607#3 40191607#4"/>
    <vehicle id="N60_146349458.0" route="13006" line="17494_700_146349458" depart="0:00:52:00" departEdge="31" arrivalEdge="31" type="bus"><!--N60 S+U Alexanderplatz-->
        <stop busStop="070101006843_0" arrival="0:00:52:00" duration="10" until="0:00:52:00"/><!--S Adlershof (Berlin)-->
    </vehicle>
    <vehicle id="N64_146349563.0" route="13631" line="22674_700_146349562" depart="0:01:21:00" departEdge="0" arrivalEdge="10" type="bus"><!--N64 S+U Wuhletal-->
        <stop busStop="070101005663_0" arrival="0:01:21:00" duration="10" until="0:01:21:00"/><!--S Adlershof (Berlin)-->
        <stop busStop="070101006843_0" arrival="0:01:22:00" duration="10" until="0:01:22:00"/><!--S Adlershof (Berlin)-->
        <stop busStop="070101006928_0" arrival="0:01:22:30" duration="10" until="0:01:22:30"/><!--Berlin  Anna-Seghers-Str.-->
        <stop busStop="070101006901_0" arrival="0:01:23:00" duration="10" until="0:01:23:00"/><!--Berlin  Marktplatz Adlershof-->
    </vehicle>
    <vehicle id="N68_146349642.0" route="13053" line="17499_700_146349641" depart="0:01:22:00" departEdge="0" arrivalEdge="10" type="bus"><!--N68 Berlin  Alt-Schmöckwitz-->
        <stop busStop="070101006843_0" arrival="0:01:22:00" duration="10" until="0:01:22:00"/><!--S Adlershof (Berlin)-->
        <stop busStop="070101006289_0" arrival="0:01:23:00" duration="10" until="0:01:23:00"/><!--Berlin  Otto-Franke-Str.-->
        <stop busStop="070101007230_0" arrival="0:01:23:30" duration="10" until="0:01:23:30"/><!--Berlin  Adlergestell Glienicker Weg-->
    </vehicle>
    <vehicle id="N64_146349564.0" route="13631" line="22674_700_146349562" depart="0:01:51:00" departEdge="0" arrivalEdge="10" type="bus"><!--N64 S+U Wuhletal-->
        <stop busStop="070101005663_0" arrival="0:01:51:00" duration="10" until="0:01:51:00"/><!--S Adlershof (Berlin)-->
        <stop busStop="070101006843_0" arrival="0:01:52:00" duration="10" until="0:01:52:00"/><!--S Adlershof (Berlin)-->
        <stop busStop="070101006928_0" arrival="0:01:52:30" duration="10" until="0:01:52:30"/><!--Berlin  Anna-Seghers-Str.-->
        <stop busStop="070101006901_0" arrival="0:01:53:00" duration="10" until="0:01:53:00"/><!--Berlin  Marktplatz Adlershof-->
    </vehicle>
    <vehicle id="N68_146349643.0" route="13053" line="17499_700_146349641" depart="0:01:52:00" departEdge="0" arrivalEdge="10" type="bus"><!--N68 Berlin  Alt-Schmöckwitz-->
        <stop busStop="070101006843_0" arrival="0:01:52:00" duration="10" until="0:01:52:00"/><!--S Adlershof (Berlin)-->
        <stop busStop="070101006289_0" arrival="0:01:53:00" duration="10" until="0:01:53:00"/><!--Berlin  Otto-Franke-Str.-->
        <stop busStop="070101007230_0" arrival="0:01:53:30" duration="10" until="0:01:53:30"/><!--Berlin  Adlergestell Glienicker Weg-->
    </vehicle>
    <vehicle id="N64_146349565.0" route="13631" line="22674_700_146349562" depart="0:02:21:00" departEdge="0" arrivalEdge="10" type="bus"><!--N64 S+U Wuhletal-->
        <stop busStop="070101005663_0" arrival="0:02:21:00" duration="10" until="0:02:21:00"/><!--S Adlershof (Berlin)-->
        <stop busStop="070101006843_0" arrival="0:02:22:00" duration="10" until="0:02:22:00"/><!--S Adlershof (Berlin)-->
        <stop busStop="070101006928_0" arrival="0:02:22:30" duration="10" until="0:02:22:30"/><!--Berlin  Anna-Seghers-Str.-->
        <stop busStop="070101006901_0" arrival="0:02:23:00" duration="10" until="0:02:23:00"/><!--Berlin  Marktplatz Adlershof-->
    </vehicle>
    <vehicle id="N68_146349644.0" route="13053" line="17499_700_146349641" depart="0:02:22:00" departEdge="0" arrivalEdge="10" type="bus"><!--N68 Berlin  Alt-Schmöckwitz-->
        <stop busStop="070101006843_0" arrival="0:02:22:00" duration="10" until="0:02:22:00"/><!--S Adlershof (Berlin)-->
        <stop busStop="070101006289_0" arrival="0:02:23:00" duration="10" until="0:02:23:00"/><!--Berlin  Otto-Franke-Str.-->
        <stop busStop="070101007230_0" arrival="0:02:23:30" duration="10" until="0:02:23:30"/><!--Berlin  Adlergestell Glienicker Weg-->
    </vehicle>
    <vehicle id="N64_146349566.0" route="13631" line="22674_700_146349562" depart="0:02:51:00" departEdge="0" arrivalEdge="10" type="bus"><!--N64 S+U Wuhletal-->
        <stop busStop="070101005663_0" arrival="0:02:51:00" duration="10" until="0:02:51:00"/><!--S Adlershof (Berlin)-->
        <stop busStop="070101006843_0" arrival="0:02:52:00" duration="10" until="0:02:52:00"/><!--S Adlershof (Berlin)-->
        <stop busStop="070101006928_0" arrival="0:02:52:30" duration="10" until="0:02:52:30"/><!--Berlin  Anna-Seghers-Str.-->
        <stop busStop="070101006901_0" arrival="0:02:53:00" duration="10" until="0:02:53:00"/><!--Berlin  Marktplatz Adlershof-->
    </vehicle>
    <vehicle id="N68_146349645.0" route="13053" line="17499_700_146349641" depart="0:02:52:00" departEdge="0" arrivalEdge="10" type="bus"><!--N68 Berlin  Alt-Schmöckwitz-->
        <stop busStop="070101006843_0" arrival="0:02:52:00" duration="10" until="0:02:52:00"/><!--S Adlershof (Berlin)-->
        <stop busStop="070101006289_0" arrival="0:02:53:00" duration="10" until="0:02:53:00"/><!--Berlin  Otto-Franke-Str.-->
        <stop busStop="070101007230_0" arrival="0:02:53:30" duration="10" until="0:02:53:30"/><!--Berlin  Adlergestell Glienicker Weg-->
    </vehicle>
    <vehicle id="N64_146349560.0" route="13631" line="22674_700_146349562" depart="0:03:21:00" departEdge="0" arrivalEdge="10" type="bus"><!--N64 S+U Wuhletal-->
        <stop busStop="070101005663_0" arrival="0:03:21:00" duration="10" until="0:03:21:00"/><!--S Adlershof (Berlin)-->
        <stop busStop="070101006843_0" arrival="0:03:22:00" duration="10" until="0:03:22:00"/><!--S Adlershof (Berlin)-->
        <stop busStop="070101006928_0" arrival="0:03:22:30" duration="10" until="0:03:22:30"/><!--Berlin  Anna-Seghers-Str.-->
        <stop busStop="070101006901_0" arrival="0:03:23:00" duration="10" until="0:03:23:00"/><!--Berlin  Marktplatz Adlershof-->
    </vehicle>
    <vehicle id="N68_146349639.0" route="13053" line="17499_700_146349641" depart="0:03:22:00" departEdge="0" arrivalEdge="10" type="bus"><!--N68 Berlin  Alt-Schmöckwitz-->
        <stop busStop="070101006843_0" arrival="0:03:22:00" duration="10" until="0:03:22:00"/><!--S Adlershof (Berlin)-->
        <stop busStop="070101006289_0" arrival="0:03:23:00" duration="10" until="0:03:23:00"/><!--Berlin  Otto-Franke-Str.-->
        <stop busStop="070101007230_0" arrival="0:03:23:30" duration="10" until="0:03:23:30"/><!--Berlin  Adlergestell Glienicker Weg-->
    </vehicle>
    <vehicle id="N64_146349561.0" route="13631" line="22674_700_146349562" depart="0:03:51:00" departEdge="0" arrivalEdge="10" type="bus"><!--N64 S+U Wuhletal-->
        <stop busStop="070101005663_0" arrival="0:03:51:00" duration="10" until="0:03:51:00"/><!--S Adlershof (Berlin)-->
        <stop busStop="070101006843_0" arrival="0:03:52:00" duration="10" until="0:03:52:00"/><!--S Adlershof (Berlin)-->
        <stop busStop="070101006928_0" arrival="0:03:52:30" duration="10" until="0:03:52:30"/><!--Berlin  Anna-Seghers-Str.-->
        <stop busStop="070101006901_0" arrival="0:03:53:00" duration="10" until="0:03:53:00"/><!--Berlin  Marktplatz Adlershof-->
    </vehicle>
    <vehicle id="N68_146349640.0" route="13053" line="17499_700_146349641" depart="0:03:52:00" departEdge="0" arrivalEdge="10" type="bus"><!--N68 Berlin  Alt-Schmöckwitz-->
        <stop busStop="070101006843_0" arrival="0:03:52:00" duration="10" until="0:03:52:00"/><!--S Adlershof (Berlin)-->
        <stop busStop="070101006289_0" arrival="0:03:53:00" duration="10" until="0:03:53:00"/><!--Berlin  Otto-Franke-Str.-->
        <stop busStop="070101007230_0" arrival="0:03:53:30" duration="10" until="0:03:53:30"/><!--Berlin  Adlergestell Glienicker Weg-->
    </vehicle>
    <vehicle id="260_146800258.0" route="11826" line="17370_700_146800432" depart="0:04:20:00" departEdge="0" arrivalEdge="40" type="bus"><!--260 Am Hanffgraben-->
        <stop busStop="070101006330_0" arrival="0:04:20:00" duration="10" until="0:04:20:00"/><!--S Adlershof (Berlin)-->
        <stop busStop="070101006921_0" arrival="0:04:21:00" duration="10" until="0:04:21:00"/><!--Berlin  Albert-Einstein-Str.-->
        <stop busStop="070101005598_0" arrival="0:04:22:00" duration="10" until="0:04:22:00"/><!--Berlin  Wilhelm-Ostwald-Str.-->
        <stop busStop="070101006607_0" arrival="0:04:23:00" duration="10" until="0:04:23:00"/><!--Berlin  Am Studio Köpenicker Str.-->
        <stop busStop="070101006523_0" arrival="0:04:24:00" duration="10" until="0:04:24:00"/><!--Berlin  Altglienicker Brücke-->
        <stop busStop="070101006582_0" arrival="0:04:25:00" duration="10" until="0:04:25:00"/><!--Berlin  Altglienicke Kirche-->
    </vehicle>
    <vehicle id="N64_146349556.0" route="13631" line="22674_700_146349562" depart="0:04:21:00" departEdge="0" arrivalEdge="10" type="bus"><!--N64 S Köpenick-->
        <stop busStop="070101005663_0" arrival="0:04:21:00" duration="10" until="0:04:21:00"/><!--S Adlershof (Berlin)-->
        <stop busStop="070101006843_0" arrival="0:04:22:00" duration="10" until="0:04:22:00"/><!--S Adlershof (Berlin)-->
        <stop busStop="070101006928_0" arrival="0:04:22:30" duration="10" until="0:04:22:30"/><!--Berlin  Anna-Seghers-Str.-->
        <stop busStop="070101006901_0" arrival="0:04:23:00" duration="10" until="0:04:23:00"/><!--Berlin  Marktplatz Adlershof-->
    </vehicle>
    <vehicle id="162_146304564.0" route="11145" line="17327_700_146304564" depart="0:04:30:00" departEdge="18" arrivalEdge="48" type="bus"><!--162 U Rudow-->
        <stop busStop="070101006330_0" arrival="0:04:30:00" duration="10" until="0:04:30:00"/><!--S Adlershof (Berlin)-->
        <stop busStop="070101005829_0" arrival="0:04:31:00" duration="10" until="0:04:31:00"/><!--Berlin  Walther-Nernst-Str.-->
        <stop busStop="070101005664_0" arrival="0:04:32:00" duration="10" until="0:04:32:00"/><!--Berlin  Magnusstr.-->
        <stop busStop="070101006470_0" arrival="0:04:33:00" duration="10" until="0:04:33:00"/><!--Berlin  Rudower Chaussee Wegedornstr.-->
        <stop busStop="070101006896_0" arrival="0:04:34:00" duration="10" until="0:04:34:00"/><!--Berlin  Wegedornstr. Semmelweisstr.-->
        <stop busStop="070101006292_0" arrival="0:04:35:00" duration="10" until="0:04:35:00"/><!--Berlin  Werderlake-->
    </vehicle>
    <vehicle id="260_146800259.0" route="11826" line="17370_700_146800432" depart="0:04:40:00" departEdge="0" arrivalEdge="40" type="bus"><!--260 Am Hanffgraben-->
        <stop busStop="070101006330_0" arrival="0:04:40:00" duration="10" until="0:04:40:00"/><!--S Adlershof (Berlin)-->
        <stop busStop="070101006921_0" arrival="0:04:41:00" duration="10" until="0:04:41:00"/><!--Berlin  Albert-Einstein-Str.-->
        <stop busStop="070101005598_0" arrival="0:04:42:00" duration="10" until="0:04:42:00"/><!--Berlin  Wilhelm-Ostwald-Str.-->
        <stop busStop="070101006607_0" arrival="0:04:43:00" duration="10" until="0:04:43:00"/><!--Berlin  Am Studio Köpenicker Str.-->
        <stop busStop="070101006523_0" arrival="0:04:44:00" duration="10" until="0:04:44:00"/><!--Berlin  Altglienicker Brücke-->
        <stop busStop="070101006582_0" arrival="0:04:45:00" duration="10" until="0:04:45:00"/><!--Berlin  Altglienicke Kirche-->
    </vehicle>
    <vehicle id="63_146327767.0" route="12218" line="17420_900_146327802" depart="0:04:41:00" departEdge="0" arrivalEdge="15" type="tram"><!--63 S Köpenick-->
        <stop busStop="070301008871_0" arrival="0:04:41:00" duration="10" until="0:04:41:00"/><!--Berlin  Karl-Ziegler-Str.-->
        <stop busStop="070301008872_0" arrival="0:04:42:00" duration="10" until="0:04:42:00"/><!--Berlin  Magnusstr.-->
        <stop busStop="070301008873_0" arrival="0:04:43:00" duration="10" until="0:04:43:00"/><!--Berlin  Walther-Nernst-Str.-->
        <stop busStop="070301008874_0" arrival="0:04:45:00" duration="10" until="0:04:45:00"/><!--S Adlershof (Berlin)-->
    </vehicle>
    <route id="11168" edges="-46150481#1 -46150481#0 190083616 318210395 143308570 283317455#0 -190083618#1 -24214694#5 -24214694#4 -24214694#3 143308590#0 143308542#1 143308542#3 143308542#4 143308542#6 143308542#8 143308542#12 143308542#13 143308542#14 143308542#15 143308552#1 143308549#1 143308549#2 143308549#3 158236381 220194458#3 806903753 218797686#0 -679901152#1 -45875465 152839428 24152326#0 24152326#1 23925124#0 23925124#1 23925124#2 -166142951#1 -166142951#0 -137534616#4 -137534616#3 -137534616#2 -137534616#1 -137534616#0 23913524#0 23913524#1 23913524#2 23913524#3 23913524#4"/>
    <vehicle id="164_146304970.0" route="11168" line="17329_700_146304970" depart="0:04:45:00" departEdge="25" arrivalEdge="47" type="bus"><!--164 Berlin  Kaulsdorfer Str.-->
        <stop busStop="070101006268_0" arrival="0:04:45:00" duration="10" until="0:04:45:00"/><!--S Adlershof (Berlin)-->
        <stop busStop="070101005610_0" arrival="0:04:46:00" duration="10" until="0:04:46:00"/><!--Berlin  Anna-Seghers-Str.-->
        <stop busStop="070101005611_0" arrival="0:04:47:00" duration="10" until="0:04:47:00"/><!--Berlin  Radickestr. Nipkowstr.-->
        <stop busStop="070101006688_0" arrival="0:04:48:00" duration="10" until="0:04:48:00"/><!--Berlin  Büchnerweg-->
        <stop busStop="070101005660_0" arrival="0:04:49:00" duration="10" until="0:04:49:00"/><!--Berlin  Glienicker Weg Nipkowstr.-->
    </vehicle>
    <vehicle id="162_146304565.0" route="11145" line="17327_700_146304564" depart="0:04:50:00" departEdge="18" arrivalEdge="48" type="bus"><!--162 U Rudow-->
        <stop busStop="070101006330_0" arrival="0:04:50:00" duration="10" until="0:04:50:00"/><!--S Adlershof (Berlin)-->
        <stop busStop="070101005829_0" arrival="0:04:51:00" duration="10" until="0:04:51:00"/><!--Berlin  Walther-Nernst-Str.-->
        <stop busStop="070101005664_0" arrival="0:04:52:00" duration="10" until="0:04:52:00"/><!--Berlin  Magnusstr.-->
        <stop busStop="070101006470_0" arrival="0:04:53:00" duration="10" until="0:04:53:00"/><!--Berlin  Rudower Chaussee Wegedornstr.-->
        <stop busStop="070101006896_0" arrival="0:04:54:00" duration="10" until="0:04:54:00"/><!--Berlin  Wegedornstr. Semmelweisstr.-->
        <stop busStop="070101006292_0" arrival="0:04:55:00" duration="10" until="0:04:55:00"/><!--Berlin  Werderlake-->
    </vehicle>
    <route id="11153" edges="70130339#0 70130339#1 70130339#2 70130339#3 70130339#4 118262353#2 -38915290#2 -38915290#1 -318210378#1 -318210378#0 -887919960#5 -887919960#4 -887919960#0 -318210377#0 -31050360#2 143308552#1 143308549#1 143308549#2 143308549#3 158236381 220194458#3 806903753 218797686#0 72230304#1 461514282#0 461514282#1 204721578#0 977639651#1 153021553 318210353 207086005 977639652 318210360#0 152839434#1 43660343#0 43660343#1 48298278#0 48858192#1 318210388#0 -318210386#1 -81639678#0 -12749623 -318210387 -375685718#1 -375685718#0 -144909690"/>
    <vehicle id="163_146304752.0" route="11153" line="17328_700_146304752" depart="0:04:53:00" departEdge="20" arrivalEdge="45" type="bus"><!--163 Flughafen BER Terminal 5-->
        <stop busStop="070101006268_0" arrival="0:04:53:00" duration="10" until="0:04:53:00"/><!--S Adlershof (Berlin)-->
        <stop busStop="070101006289_0" arrival="0:04:54:00" duration="10" until="0:04:54:00"/><!--Berlin  Otto-Franke-Str.-->
        <stop busStop="070101007230_0" arrival="0:04:55:00" duration="10" until="0:04:55:00"/><!--Berlin  Adlergestell Glienicker Weg-->
        <stop busStop="070101006523_0" arrival="0:04:57:00" duration="10" until="0:04:57:00"/><!--Berlin  Altglienicker Brücke-->
        <stop busStop="070101006582_0" arrival="0:04:58:00" duration="10" until="0:04:58:00"/><!--Berlin  Altglienicke Kirche-->
    </vehicle>
    <vehicle id="260_146800260.0" route="11826" line="17370_700_146800432" depart="0:04:58:00" departEdge="0" arrivalEdge="40" type="bus"><!--260 Am Hanffgraben-->
        <stop busStop="070101006330_0" arrival="0:04:58:00" duration="10" until="0:04:58:00"/><!--S Adlershof (Berlin)-->
        <stop busStop="070101006921_0" arrival="0:05:01:00" duration="10" until="0:05:01:00"/><!--Berlin  Albert-Einstein-Str.-->
        <stop busStop="070101005598_0" arrival="0:05:02:00" duration="10" until="0:05:02:00"/><!--Berlin  Wilhelm-Ostwald-Str.-->
        <stop busStop="070101006607_0" arrival="0:05:03:00" duration="10" until="0:05:03:00"/><!--Berlin  Am Studio Köpenicker Str.-->
        <stop busStop="070101006523_0" arrival="0:05:04:00" duration="10" until="0:05:04:00"/><!--Berlin  Altglienicker Brücke-->
        <stop busStop="070101006582_0" arrival="0:05:05:00" duration="10" until="0:05:05:00"/><!--Berlin  Altglienicke Kirche-->
    </vehicle>
    <vehicle id="63_146327806.0" route="12218" line="17420_900_146327802" depart="0:05:01:00" departEdge="0" arrivalEdge="15" type="tram"><!--63 Berlin  Rahnsdorfer Str.-->
        <stop busStop="070301008871_0" arrival="0:05:01:00" duration="10" until="0:05:01:00"/><!--Berlin  Karl-Ziegler-Str.-->
        <stop busStop="070301008872_0" arrival="0:05:02:00" duration="10" until="0:05:02:00"/><!--Berlin  Magnusstr.-->
        <stop busStop="070301008873_0" arrival="0:05:03:00" duration="10" until="0:05:03:00"/><!--Berlin  Walther-Nernst-Str.-->
        <stop busStop="070301008874_0" arrival="0:05:05:00" duration="10" until="0:05:05:00"/><!--S Adlershof (Berlin)-->
    </vehicle>
    <vehicle id="162_146304566.0" route="11145" line="17327_700_146304580" depart="0:05:08:00" departEdge="18" arrivalEdge="48" type="bus"><!--162 U Rudow-->
        <stop busStop="070101006330_0" arrival="0:05:10:00" duration="10" until="0:05:10:00"/><!--S Adlershof (Berlin)-->
        <stop busStop="070101005829_0" arrival="0:05:11:00" duration="10" until="0:05:11:00"/><!--Berlin  Walther-Nernst-Str.-->
        <stop busStop="070101005664_0" arrival="0:05:12:00" duration="10" until="0:05:12:00"/><!--Berlin  Magnusstr.-->
        <stop busStop="070101006470_0" arrival="0:05:13:00" duration="10" until="0:05:13:00"/><!--Berlin  Rudower Chaussee Wegedornstr.-->
        <stop busStop="070101006896_0" arrival="0:05:14:00" duration="10" until="0:05:14:00"/><!--Berlin  Wegedornstr. Semmelweisstr.-->
        <stop busStop="070101006292_0" arrival="0:05:15:00" duration="10" until="0:05:15:00"/><!--Berlin  Werderlake-->
    </vehicle>
    <vehicle id="163_146304753.0" route="11153" line="17328_700_146304752" depart="0:05:13:00" departEdge="20" arrivalEdge="45" type="bus"><!--163 Flughafen BER Terminal 5-->
        <stop busStop="070101006268_0" arrival="0:05:13:00" duration="10" until="0:05:13:00"/><!--S Adlershof (Berlin)-->
        <stop busStop="070101006289_0" arrival="0:05:14:00" duration="10" until="0:05:14:00"/><!--Berlin  Otto-Franke-Str.-->
        <stop busStop="070101007230_0" arrival="0:05:15:00" duration="10" until="0:05:15:00"/><!--Berlin  Adlergestell Glienicker Weg-->
        <stop busStop="070101006523_0" arrival="0:05:17:00" duration="10" until="0:05:17:00"/><!--Berlin  Altglienicker Brücke-->
        <stop busStop="070101006582_0" arrival="0:05:18:00" duration="10" until="0:05:18:00"/><!--Berlin  Altglienicke Kirche-->
    </vehicle>
    <vehicle id="260_146800261.0" route="11826" line="17370_700_146800432" depart="0:05:18:00" departEdge="0" arrivalEdge="40" type="bus"><!--260 Am Hanffgraben-->
        <stop busStop="070101006330_0" arrival="0:05:18:00" duration="10" until="0:05:18:00"/><!--S Adlershof (Berlin)-->
        <stop busStop="070101006921_0" arrival="0:05:21:00" duration="10" until="0:05:21:00"/><!--Berlin  Albert-Einstein-Str.-->
        <stop busStop="070101005598_0" arrival="0:05:22:00" duration="10" until="0:05:22:00"/><!--Berlin  Wilhelm-Ostwald-Str.-->
        <stop busStop="070101006607_0" arrival="0:05:23:00" duration="10" until="0:05:23:00"/><!--Berlin  Am Studio Köpenicker Str.-->
        <stop busStop="070101006523_0" arrival="0:05:24:00" duration="10" until="0:05:24:00"/><!--Berlin  Altglienicker Brücke-->
        <stop busStop="070101006582_0" arrival="0:05:25:00" duration="10" until="0:05:25:00"/><!--Berlin  Altglienicke Kirche-->
    </vehicle>
    <vehicle id="63_146327807.0" route="12218" line="17420_900_146327802" depart="0:05:21:00" departEdge="0" arrivalEdge="15" type="tram"><!--63 Berlin  Rahnsdorfer Str.-->
        <stop busStop="070301008871_0" arrival="0:05:21:00" duration="10" until="0:05:21:00"/><!--Berlin  Karl-Ziegler-Str.-->
        <stop busStop="070301008872_0" arrival="0:05:22:00" duration="10" until="0:05:22:00"/><!--Berlin  Magnusstr.-->