<?xml version="1.0" encoding="UTF-8"?>
<!-- generated on 2021-09-10 11:50:07.723352 by gtfs2pt.py v1_10_0+0661-0e4e616c0dc
  options: -n osm.net.xml <doubleminus>gtfs GTFS.zip <doubleminus>date 20211206 <doubleminus>osm-routes osm_ptlines.xml <doubleminus>repair
-->
<additional xmlns:xsi="http://www.w3.org/2001/XMLSchema-instance" xsi:noNamespaceSchemaLocation="http://sumo.dlr.de/xsd/additional_file.xsd">
    <trainStop id="060193002004_0" lane="22917994_0" startPos="1263.56" endPos="1373.56" name="S Adlershof (Berlin)" friendlyPos="true">
        <access friendlyPos="true" lane="72230304#1_0" pos="85.51" length="19.13"/>
        <access friendlyPos="true" lane="540388567#1_0" pos="2.55" length="26.80"/>
        <access friendlyPos="true" lane="540388566_0" pos="0.11" length="32.17"/>
        <access friendlyPos="true" lane="540388567#0_0" pos="2.44" length="30.25"/>
        <access friendlyPos="true" lane="85088365_0" pos="10.28" length="32.75"/>
    </trainStop>
    <trainStop id="060193001004_0" lane="22917994_0" startPos="2916.33" endPos="3026.33" name="S Johannisthal (Berlin)" friendlyPos="true">
        <access friendlyPos="true" lane="886496562#2_0" pos="1400.93" length="57.71"/>
    </trainStop>
    <trainStop id="060193001003_0" lane="431786563_0" startPos="0.00" endPos="110.00" name="S Johannisthal (Berlin)" friendlyPos="true">
        <access friendlyPos="true" lane="886496562#2_0" pos="1501.67" length="72.48"/>
    </trainStop>
    <trainStop id="060193002003_0" lane="431786563_0" startPos="1534.99" endPos="1644.99" name="S Adlershof (Berlin)" friendlyPos="true">
        <access friendlyPos="true" lane="318210355_0" pos="134.06" length="42.10"/>
        <access friendlyPos="true" lane="40191607#3_0" pos="35.12" length="70.60"/>
        <access friendlyPos="true" lane="886496562#1_0" pos="36.04" length="91.14"/>
        <access friendlyPos="true" lane="40191607#4_0" pos="0.00" length="86.15"/>
        <access friendlyPos="true" lane="886496562#2_0" pos="0.00" length="103.04"/>
    </trainStop>
    <busStop id="070101006895_0" lane="178028204#1_1" startPos="0.00" endPos="13.00" name="Berlin  Marktplatz Adlershof" friendlyPos="true"/>
    <busStop id="070101006892_0" lane="152839426_1" startPos="6.18" endPos="19.18" name="Berlin  Anna-Seghers-Str." friendlyPos="true"/>
    <busStop id="070101006330_0" lane="206889086#1_2" startPos="23.69" endPos="36.69" name="S Adlershof (Berlin)" friendlyPos="true"/>
    <busStop id="070101005663_0" lane="52036180#3_2" startPos="0.00" endPos="13.00" name="S Adlershof (Berlin)" friendlyPos="true"/>
    <busStop id="070101006843_0" lane="52036180#3_2" startPos="0.00" endPos="13.00" name="S Adlershof (Berlin)" friendlyPos="true"/>
    <busStop id="070101006928_0" lane="-152839426_1" startPos="10.97" endPos="23.97" name="Berlin  Anna-Seghers-Str." friendlyPos="true"/>
    <busStop id="070101006901_0" lane="-178028204#1_1" startPos="57.96" endPos="70.95" name="Berlin  Marktplatz Adlershof" friendlyPos="true"/>
    <busStop id="070101005829_0" lane="670062907#1_1" startPos="0.00" endPos="13.00" name="Berlin  Walther-Nernst-Str." friendlyPos="true"/>
    <busStop id="070101005664_0" lane="143308546#1_1" startPos="29.26" endPos="42.26" name="Berlin  Magnusstr." friendlyPos="true"/>
    <busStop id="070101006470_0" lane="143308587#1_2" startPos="0.00" endPos="13.00" name="Berlin  Rudower Chaussee Wegedornstr." friendlyPos="true"/>
    <busStop id="070101006896_0" lane="-190083616_2" startPos="72.55" endPos="85.52" name="Berlin  Wegedornstr. Semmelweisstr." friendlyPos="true"/>
    <busStop id="070101006927_0" lane="143308590#0_2" startPos="25.39" endPos="38.39" name="Berlin  Rudower Chaussee Wegedornstr." friendlyPos="true"/>
    <busStop id="070101005608_0" lane="143308542#6_1" startPos="2.20" endPos="15.20" name="Berlin  Magnusstr." friendlyPos="true"/>
    <busStop id="070101005895_0" lane="143308542#15_1" startPos="35.61" endPos="48.61" name="Berlin  Walther-Nernst-Str." friendlyPos="true"/>
    <busStop id="070101006268_0" lane="220194458#3_1" startPos="0.00" endPos="13.00" name="S Adlershof (Berlin)" friendlyPos="true"/>
    <busStop id="070101006944_0" lane="-23913524#4_1" startPos="0.00" endPos="13.00" name="Berlin  Glienicker Weg Nipkowstr." friendlyPos="true"/>
    <busStop id="070101006670_0" lane="-23913524#3_1" startPos="35.60" endPos="48.60" name="Berlin  Büchnerweg" friendlyPos="true"/>
    <busStop id="070101005661_0" lane="137534616#0_1" startPos="5.23" endPos="18.23" name="Berlin  Radickestr. Nipkowstr." friendlyPos="true"/>
    <busStop id="070101006922_0" lane="149611526#0_1" startPos="32.27" endPos="45.27" name="Berlin  Radickestr. Anna-Seghers-Str." friendlyPos="true"/>
    <busStop id="070101006297_0" lane="-46150481#0_2" startPos="51.36" endPos="64.36" name="Berlin  Wegedornstr. Semmelweisstr." friendlyPos="true"/>
    <busStop id="070101005610_0" lane="24152326#1_1" startPos="0.00" endPos="13.00" name="Berlin  Anna-Seghers-Str." friendlyPos="true"/>
    <busStop id="070101005611_0" lane="-137534616#0_1" startPos="9.53" endPos="22.53" name="Berlin  Radickestr. Nipkowstr." friendlyPos="true"/>
    <busStop id="070101006688_0" lane="23913524#3_1" startPos="33.89" endPos="46.89" name="Berlin  Büchnerweg" friendlyPos="true"/>
    <busStop id="070101005660_0" lane="23913524#4_1" startPos="70.68" endPos="83.67" name="Berlin  Glienicker Weg Nipkowstr." friendlyPos="true"/>
    <busStop id="070101006289_0" lane="204721578#0_2" startPos="86.97" endPos="99.97" name="Berlin  Otto-Franke-Str." friendlyPos="true"/>
    <busStop id="070101007230_0" lane="318210360#0_2" startPos="53.67" endPos="66.67" name="Berlin  Adlergestell Glienicker Weg" friendlyPos="true"/>
    <busStop id="070101007239_0" lane="204721579#2_1" startPos="2.03" endPos="15.03" name="Berlin  Adlergestell Glienicker Weg" friendlyPos="true"/>
    <busStop id="070101006329_0" lane="153021549#0_1" startPos="0.00" endPos="13.00" name="Berlin  Otto-Franke-Str." friendlyPos="true"/>
    <busStop id="070101006897_0" lane="46150481#1_2" startPos="27.15" endPos="40.15" name="Berlin  Am Kiesberg" friendlyPos="true"/>
    <busStop id="070101006614_0" lane="81096611#0_1" startPos="0.00" endPos="13.00" name="Berlin  Altglienicke Kirche" friendlyPos="true"/>
    <busStop id="070101006615_0" lane="81096611#0_1" startPos="485.52" endPos="498.52" name="Berlin  Korkedamm" friendlyPos="true"/>
    <busStop id="070101006905_0" lane="169076556#3_1" startPos="0.00" endPos="13.00" name="Berlin  Wegedornstr. Semmelweisstr." friendlyPos="true"/>
    <busStop id="070101006584_0" lane="144909690_1" startPos="0.00" endPos="13.00" name="Berlin  Altglienicke Kirche" friendlyPos="true"/>
    <busStop id="070101006587_0" lane="144909690_1" startPos="429.51" endPos="441.50" name="Berlin  Altglienicker Brücke" friendlyPos="true"/>
    <busStop id="070101006267_0" lane="314415495#1_2" startPos="0.00" endPos="13.00" name="Berlin  Am Studio Köpenicker Str." friendlyPos="true"/>
    <busStop id="070101006270_0" lane="314415495#7_2" startPos="0.00" endPos="13.00" name="Berlin  Wilhelm-Ostwald-Str." friendlyPos="true"/>
    <busStop id="070101006271_0" lane="314415495#15_2" startPos="0.00" endPos="13.00" name="Berlin  Albert-Einstein-Str." friendlyPos="true"/>
    <busStop id="070101006921_0" lane="-314415495#15_2" startPos="0.00" endPos="13.00" name="Berlin  Albert-Einstein-Str." friendlyPos="true"/>
    <busStop id="070101005598_0" lane="-314415495#7_2" startPos="80.47" endPos="93.47" name="Berlin  Wilhelm-Ostwald-Str." friendlyPos="true"/>
    <busStop id="070101006607_0" lane="-314415495#1_2" startPos="31.87" endPos="44.87" name="Berlin  Am Studio Köpenicker Str." friendlyPos="true"/>
    <busStop id="070101006523_0" lane="-144909690_1" startPos="0.00" endPos="13.00" name="Berlin  Altglienicker Brücke" friendlyPos="true"/>
    <busStop id="070101006582_0" lane="-144909690_1" startPos="422.84" endPos="435.84" name="Berlin  Altglienicke Kirche" friendlyPos="true"/>
    <busStop id="070101005712_0" lane="70130339#1_2" startPos="41.97" endPos="54.97" name="Berlin  Landschaftspark Johannisthal" friendlyPos="true"/>
    <busStop id="070101006290_0" lane="-318210378#0_2" startPos="69.79" endPos="82.76" name="Berlin  Hans-Schmidt-Str." friendlyPos="true"/>
    <busStop id="070101005795_0" lane="318210378#0_2" startPos="0.00" endPos="13.00" name="Berlin  Hans-Schmidt-Str." friendlyPos="true"/>
    <busStop id="070101005745_0" lane="231626692#1_2" startPos="177.32" endPos="190.32" name="Berlin  Landschaftspark Johannisthal" friendlyPos="true"/>
    <busStop id="070101006292_0" lane="46150481#1_2" startPos="27.15" endPos="40.15" name="Berlin  Werderlake" friendlyPos="true"/>
    <busStop id="070101006296_0" lane="-46150481#1_2" startPos="0.00" endPos="13.00" name="Berlin  Werderlake" friendlyPos="true"/>
    <busStop id="070101001541_0" lane="145586617#0_1" startPos="33.16" endPos="46.16" name="Berlin  August-Froehlich-Str." friendlyPos="true"/>
    <busStop id="070101001542_0" lane="145586617#6_1" startPos="202.45" endPos="215.45" name="Berlin  Hafenstr." friendlyPos="true"/>
    <busStop id="070101002580_0" lane="145586617#6_1" startPos="497.51" endPos="510.51" name="Berlin  Mistelweg" friendlyPos="true"/>
    <busStop id="070101002581_0" lane="145586617#6_1" startPos="923.72" endPos="936.72" name="Berlin  Kanalstr. 38-41" friendlyPos="true"/>
    <busStop id="070101002578_0" lane="145586617#6_1" startPos="923.72" endPos="936.72" name="Berlin  Kanalstr. 38-41" friendlyPos="true"/>
    <busStop id="070101002579_0" lane="145586617#6_1" startPos="497.51" endPos="510.51" name="Berlin  Mistelweg" friendlyPos="true"/>
    <busStop id="070101001543_0" lane="145586617#6_1" startPos="202.45" endPos="215.45" name="Berlin  Hafenstr." friendlyPos="true"/>
    <busStop id="070101001544_0" lane="145586617#0_1" startPos="33.16" endPos="46.16" name="Berlin  August-Froehlich-Str." friendlyPos="true"/>
    <busStop id="070101006033_0" lane="141968799_1" startPos="0.00" endPos="13.00" name="Berlin  Stubenrauchstr. Springbornstr." friendlyPos="true"/>
    <busStop id="070101006468_0" lane="141968799_1" startPos="331.20" endPos="344.20" name="Berlin  Johannes-Sasse-Ring" friendlyPos="true"/>
    <busStop id="070101006469_0" lane="141968830#2_1" startPos="22.57" endPos="35.57" name="Berlin  Akeleiweg" friendlyPos="true"/>
    <busStop id="070101005345_0" lane="46039050#4_1" startPos="15.89" endPos="28.89" name="Berlin  James-Franck-Str." friendlyPos="true"/>
    <busStop id="070101006490_0" lane="143308590#0_2" startPos="25.39" endPos="38.39" name="Berlin  Rudower Chaussee Wegedornstr." friendlyPos="true"/>
    <busStop id="070101006491_0" lane="143308532#4_1" startPos="46.69" endPos="59.69" name="Berlin  James-Franck-Str." friendlyPos="true"/>
    <busStop id="070101006492_0" lane="-141968830#2_1" startPos="0.00" endPos="13.00" name="Berlin  Akeleiweg" friendlyPos="true"/>
    <busStop id="070101006493_0" lane="-141968830#0_1" startPos="422.76" endPos="435.76" name="Berlin  Johannes-Sasse-Ring" friendlyPos="true"/>
    <busStop id="070101006071_0" lane="-141968830#0_1" startPos="766.85" endPos="779.07" name="Berlin  Stubenrauchstr. Springbornstr." friendlyPos="true"/>
    <trainStop id="070301008871_0" lane="385981675#1_0" startPos="65.17" endPos="125.17" name="Berlin  Karl-Ziegler-Str." friendlyPos="true">
        <access friendlyPos="true" lane="-142575684#1_0" pos="3.76" length="0.65"/>
        <access friendlyPos="true" lane="142575684#1_0" pos="7.51" length="5.45"/>
        <access friendlyPos="true" lane="840221735#4_0" pos="11.16" length="12.33"/>
        <access friendlyPos="true" lane="397678494#0_0" pos="0.00" length="20.28"/>
        <access friendlyPos="true" lane="142575684#0_0" pos="20.81" length="19.57"/>
    </trainStop>
    <trainStop id="070301008872_0" lane="220198808#1_0" startPos="0.00" endPos="60.00" name="Berlin  Magnusstr." friendlyPos="true">
        <access friendlyPos="true" lane="81096580#4_0" pos="0.00" length="5.01"/>
        <access friendlyPos="true" lane="81096580#1_0" pos="0.18" length="10.10"/>
        <access friendlyPos="true" lane="143308542#6_0" pos="58.74" length="10.21"/>
        <access friendlyPos="true" lane="81096580#7_0" pos="0.00" length="19.71"/>
        <access friendlyPos="true" lane="142575691#1_0" pos="0.00" length="20.59"/>
    </trainStop>
    <trainStop id="070301008873_0" lane="220198808#9_0" startPos="0.00" endPos="60.00" name="Berlin  Walther-Nernst-Str." friendlyPos="true">
        <access friendlyPos="true" lane="143308552#1_0" pos="0.00" length="10.82"/>
        <access friendlyPos="true" lane="81096597#3_0" pos="0.00" length="21.45"/>
        <access friendlyPos="true" lane="670062908#1_0" pos="60.05" length="15.02"/>
        <access friendlyPos="true" lane="81096597#4_0" pos="0.00" length="22.51"/>
        <access friendlyPos="true" lane="31050360#1_0" pos="0.00" length="32.94"/>
    </trainStop>
    <trainStop id="070301008874_0" lane="158236381_1" startPos="39.18" endPos="99.18" name="S Adlershof (Berlin)" friendlyPos="true">
        <access friendlyPos="true" lane="158236381_0" pos="39.18" length="0.00"/>
        <access friendlyPos="true" lane="976351540#1_0" pos="39.18" length="7.48"/>
        <access friendlyPos="true" lane="318210389#0_0" pos="2.11" length="12.90"/>
        <access friendlyPos="true" lane="541676219_0" pos="66.58" length="21.42"/>
        <access friendlyPos="true" lane="617443825#0_0" pos="0.00" length="48.63"/>
    </trainStop>
    <trainStop id="070301009664_0" lane="179699939#4_0" startPos="0.00" endPos="60.00" name="Berlin  Marktplatz Adlershof" friendlyPos="true">
        <access friendlyPos="true" lane="-178028204#1_0" pos="70.96" length="2.39"/>
        <access friendlyPos="true" lane="178028204#1_0" pos="0.00" length="2.40"/>
        <access friendlyPos="true" lane="-178028204#0_0" pos="0.00" length="5.06"/>
        <access friendlyPos="true" lane="178028204#0_0" pos="0.10" length="5.09"/>
        <access friendlyPos="true" lane="149611534#0_0" pos="0.00" length="14.81"/>
    </trainStop>
    <trainStop id="070301008867_0" lane="179699938#8_0" startPos="0.00" endPos="60.00" name="S Adlershof (Berlin)" friendlyPos="true">
        <access friendlyPos="true" lane="82710639#2_0" pos="0.00" length="3.75"/>
        <access friendlyPos="true" lane="82710639#1_0" pos="0.20" length="4.78"/>
        <access friendlyPos="true" lane="158236381_0" pos="99.18" length="25.44"/>
        <access friendlyPos="true" lane="82710639#5_0" pos="0.00" length="9.55"/>
        <access friendlyPos="true" lane="220194458#3_0" pos="0.00" length="9.00"/>
    </trainStop>
    <trainStop id="070301008868_0" lane="206889079#6_0" startPos="20.91" endPos="80.91" name="Berlin  Walther-Nernst-Str." friendlyPos="true">
        <access friendlyPos="true" lane="670062908#1_0" pos="0.07" length="9.66"/>
        <access friendlyPos="true" lane="670062909#1_0" pos="15.84" length="12.30"/>
        <access friendlyPos="true" lane="122868964#1_0" pos="38.50" length="26.20"/>
        <access friendlyPos="true" lane="143308552#1_0" pos="60.01" length="16.50"/>
        <access friendlyPos="true" lane="887625216#15_0" pos="60.11" length="30.58"/>
    </trainStop>
    <trainStop id="070301008869_0" lane="206889079#14_0" startPos="77.88" endPos="137.88" name="Berlin  Magnusstr." friendlyPos="true">
        <access friendlyPos="true" lane="677933664#4_0" pos="77.72" length="8.61"/>
        <access friendlyPos="true" lane="143308542#8_0" pos="47.31" length="9.10"/>
        <access friendlyPos="true" lane="887910341#13_0" pos="49.87" length="19.84"/>
        <access friendlyPos="true" lane="24733698#2_0" pos="15.81" length="34.26"/>
        <access friendlyPos="true" lane="143308546#0_0" pos="0.00" length="32.29"/>
    </trainStop>
    <trainStop id="070301008870_0" lane="220198810#9_0" startPos="0.00" endPos="60.00" name="Berlin  Karl-Ziegler-Str." friendlyPos="true">
        <access friendlyPos="true" lane="569694705#0_0" pos="0.20" length="4.72"/>
        <access friendlyPos="true" lane="569694705#2_0" pos="0.00" length="7.73"/>
        <access friendlyPos="true" lane="142575686#3_0" pos="0.22" length="5.04"/>
        <access friendlyPos="true" lane="142575686#2_0" pos="9.41" length="9.34"/>
        <access friendlyPos="true" lane="142575685#0_0" pos="63.37" length="9.90"/>
    </trainStop>
</additional>
