<?xml version="1.0" encoding="UTF-8"?>
<!-- generated on 2021-09-10 11:51:02.062344 by randomTrips.py v1_10_0+0661-0e4e616c0dc
  options: -n osm.net.xml <doubleminus>fringe-factor 1 -p 1.223640 -o gtfs.pedestrian.trips.xml -b 16:0:0 -e 16:30:0 -r gtfs.pedestrian.rou.xml <doubleminus>vehicle-class pedestrian <doubleminus>persontrips <doubleminus>prefix ped <doubleminus>trip-attributes modes="public" <doubleminus>additional-files vType.xml,gtfs_publictransport.add.xml,gtfs_publictransport.rou.xml <doubleminus>persontrip.walk-opposite-factor 0.8
-->
<routes xmlns:xsi="http://www.w3.org/2001/XMLSchema-instance" xsi:noNamespaceSchemaLocation="http://sumo.dlr.de/xsd/routes_file.xsd">
    <vType id="ped_pedestrian" vClass="pedestrian"/>
    <person id="ped0" depart="57600.00" type="ped_pedestrian">
        <personTrip from="40985809#0" to="-138624445#15" modes="public"/>
    </person>
    <person id="ped1" depart="57601.22" type="ped_pedestrian">
        <personTrip from="-629992783" to="-461093303#1" modes="public"/>
    </person>
    <person id="ped2" depart="57602.45" type="ped_pedestrian">
        <personTrip from="586124064#1" to="53529255#2" modes="public"/>
    </person>
    <person id="ped3" depart="57603.67" type="ped_pedestrian">
        <personTrip from="843189995#4" to="-145586617#2" modes="public"/>
    </person>
    <person id="ped4" depart="57604.89" type="ped_pedestrian">
        <personTrip from="142575735#0" to="-138624469#8" modes="public"/>
    </person>
    <person id="ped5" depart="57606.12" type="ped_pedestrian">
        <personTrip from="-439105525#0" to="212448067" modes="public"/>
    </person>
    <person id="ped6" depart="57607.34" type="ped_pedestrian">
        <personTrip from="-138624445#7" to="-38159999#0" modes="public"/>
    </person>
    <person id="ped7" depart="57608.57" type="ped_pedestrian">
        <personTrip from="45642431#1" to="257131027" modes="public"/>
    </person>
    <person id="ped8" depart="57609.79" type="ped_pedestrian">
        <personTrip from="-443454551" to="318210383#0" modes="public"/>
    </person>
    <person id="ped9" depart="57611.01" type="ped_pedestrian">
        <personTrip from="77761480#1" to="-116343628#2" modes="public"/>
    </person>
    <person id="ped10" depart="57612.24" type="ped_pedestrian">
        <personTrip from="762156868" to="55939167#2" modes="public"/>
    </person>
    <person id="ped11" depart="57613.46" type="ped_pedestrian">
        <personTrip from="115466410#0" to="-257131023" modes="public"/>
    </person>
    <person id="ped12" depart="57614.68" type="ped_pedestrian">
        <personTrip from="887612171#2" to="114355961" modes="public"/>
    </person>
    <person id="ped13" depart="57615.91" type="ped_pedestrian">
        <personTrip from="-149611511#3" to="-149670370#0" modes="public"/>
    </person>
    <person id="ped14" depart="57617.13" type="ped_pedestrian">
        <personTrip from="840221714#0" to="336335410#2" modes="public"/>
    </person>
    <person id="ped15" depart="57618.35" type="ped_pedestrian">
        <personTrip from="767962950#1" to="586124025" modes="public"/>
    </person>
    <person id="ped16" depart="57619.58" type="ped_pedestrian">
        <personTrip from="24791992" to="887712506#0" modes="public"/>
    </person>
    <person id="ped17" depart="57620.80" type="ped_pedestrian">
        <personTrip from="140162609#0" to="259466417#1" modes="public"/>
    </person>
    <person id="ped18" depart="57622.03" type="ped_pedestrian">
        <personTrip from="840101794" to="38568632#0" modes="public"/>
    </person>
    <person id="ped19" depart="57623.25" type="ped_pedestrian">
        <personTrip from="840221735#1" to="312192836" modes="public"/>
    </person>
    <person id="ped20" depart="57624.47" type="ped_pedestrian">
        <personTrip from="578659327#5" to="-142575684#6" modes="public"/>
    </person>
    <person id="ped21" depart="57625.70" type="ped_pedestrian">
        <personTrip from="-52080902" to="-71595991" modes="public"/>
    </person>
    <person id="ped22" depart="57626.92" type="ped_pedestrian">
        <personTrip from="-143308646#2" to="-53529200#1" modes="public"/>
    </person>
    <person id="ped23" depart="57628.14" type="ped_pedestrian">
        <personTrip from="-152839426" to="-679894162" modes="public"/>
    </person>
    <person id="ped24" depart="57629.37" type="ped_pedestrian">
        <personTrip from="40191605#0" to="138624421#32" modes="public"/>
    </person>
    <person id="ped25" depart="57630.59" type="ped_pedestrian">
        <personTrip from="138624445#3" to="-38574189#7" modes="public"/>
    </person>
    <person id="ped26" depart="57631.81" type="ped_pedestrian">
        <personTrip from="-586124064#1" to="883112696#1" modes="public"/>
    </person>
    <person id="ped27" depart="57633.04" type="ped_pedestrian">
        <personTrip from="443454551" to="357043348" modes="public"/>
    </person>
    <person id="ped28" depart="57634.26" type="ped_pedestrian">
        <personTrip from="-302943908#2" to="586124018" modes="public"/>
    </person>
    <person id="ped29" depart="57635.49" type="ped_pedestrian">
        <personTrip from="-26444468#3" to="140964924" modes="public"/>
    </person>
    <person id="ped30" depart="57636.71" type="ped_pedestrian">
        <personTrip from="92914055#1" to="40985813#1" modes="public"/>
    </person>
    <person id="ped31" depart="57637.93" type="ped_pedestrian">
        <personTrip from="26444467#2" to="540223976" modes="public"/>
    </person>
    <person id="ped32" depart="57639.16" type="ped_pedestrian">
        <personTrip from="840221709#2" to="679894150" modes="public"/>
    </person>
    <person id="ped33" depart="57640.38" type="ped_pedestrian">
        <personTrip from="-52081093#2" to="-140964905#2" modes="public"/>
    </person>
    <person id="ped34" depart="57641.60" type="ped_pedestrian">
        <personTrip from="-845194194" to="-586124067" modes="public"/>
    </person>
    <person id="ped35" depart="57642.83" type="ped_pedestrian">
        <personTrip from="-38915289#1" to="886496558#0" modes="public"/>
    </person>
    <person id="ped36" depart="57644.05" type="ped_pedestrian">
        <personTrip from="840565793#6" to="-843832588#2" modes="public"/>
    </person>
    <person id="ped37" depart="57645.27" type="ped_pedestrian">
        <personTrip from="461514282#0" to="142575679#3" modes="public"/>
    </person>
    <person id="ped38" depart="57646.50" type="ped_pedestrian">
        <personTrip from="843544571#1" to="146738850#0" modes="public"/>
    </person>
    <person id="ped39" depart="57647.72" type="ped_pedestrian">
        <personTrip from="-586124054" to="-558305346" modes="public"/>
    </person>
    <person id="ped40" depart="57648.95" type="ped_pedestrian">
        <personTrip from="26816541" to="-586124044" modes="public"/>
    </person>
    <person id="ped41" depart="57650.17" type="ped_pedestrian">
        <personTrip from="314415495#7" to="843190001#0" modes="public"/>
    </person>
    <person id="ped42" depart="57651.39" type="ped_pedestrian">
        <personTrip from="142575688#1" to="-443066375#1" modes="public"/>
    </person>
    <person id="ped43" depart="57652.62" type="ped_pedestrian">
        <personTrip from="976918148#2" to="212454382#0" modes="public"/>
    </person>
    <person id="ped44" depart="57653.84" type="ped_pedestrian">
        <personTrip from="-147859765#0" to="-142575688#3" modes="public"/>
    </person>
    <person id="ped45" depart="57655.06" type="ped_pedestrian">
        <personTrip from="-175357041#1" to="38915290#2" modes="public"/>
    </person>
    <person id="ped46" depart="57656.29" type="ped_pedestrian">
        <personTrip from="708753754#1" to="142575735#2" modes="public"/>
    </person>
    <person id="ped47" depart="57657.51" type="ped_pedestrian">
        <personTrip from="-142575734#5" to="141968830#1" modes="public"/>
    </person>
    <person id="ped48" depart="57658.73" type="ped_pedestrian">
        <personTrip from="976735033#1" to="24152597#6" modes="public"/>
    </person>
    <person id="ped49" depart="57659.96" type="ped_pedestrian">
        <personTrip from="887712504#2" to="840221733#5" modes="public"/>
    </person>
    <person id="ped50" depart="57661.18" type="ped_pedestrian">
        <personTrip from="-134100875" to="581596945" modes="public"/>
    </person>
    <person id="ped51" depart="57662.41" type="ped_pedestrian">
        <personTrip from="53529600#2" to="24791993#2" modes="public"/>
    </person>
    <person id="ped52" depart="57663.63" type="ped_pedestrian">
        <personTrip from="-586124064#0" to="412814181" modes="public"/>
    </person>
    <person id="ped53" depart="57664.85" type="ped_pedestrian">
        <personTrip from="-178028204#2" to="143308527#4" modes="public"/>
    </person>
    <person id="ped54" depart="57666.08" type="ped_pedestrian">
        <personTrip from="143482766#2" to="887612168#6" modes="public"/>
    </person>
    <person id="ped55" depart="57667.30" type="ped_pedestrian">
        <personTrip from="840565793#3" to="-586124047" modes="public"/>
    </person>
    <person id="ped56" depart="57668.52" type="ped_pedestrian">
        <personTrip from="20553015#1" to="-314415495#19" modes="public"/>
    </person>
    <person id="ped57" depart="57669.75" type="ped_pedestrian">
        <personTrip from="843190016#16" to="840565783" modes="public"/>
    </person>
    <person id="ped58" depart="57670.97" type="ped_pedestrian">
        <personTrip from="-77761467#0" to="40636828#2" modes="public"/>
    </person>
    <person id="ped59" depart="57672.19" type="ped_pedestrian">
        <personTrip from="356766925" to="-24791996#0" modes="public"/>
    </person>
    <person id="ped60" depart="57673.42" type="ped_pedestrian">
        <personTrip from="630078181#2" to="257005614#2" modes="public"/>
    </person>
    <person id="ped61" depart="57674.64" type="ped_pedestrian">
        <personTrip from="683917422#1" to="24152656#0" modes="public"/>
    </person>
    <person id="ped62" depart="57675.87" type="ped_pedestrian">
        <personTrip from="-114024901" to="-918501803" modes="public"/>
    </person>
    <person id="ped63" depart="57677.09" type="ped_pedestrian">
        <personTrip from="-138624421#21" to="848515498#0" modes="public"/>
    </person>
    <person id="ped64" depart="57678.31" type="ped_pedestrian">
        <personTrip from="840565795#5" to="840101811" modes="public"/>
    </person>
    <person id="ped65" depart="57679.54" type="ped_pedestrian">
        <personTrip from="-840101818" to="-142575708#5" modes="public"/>
    </person>
    <person id="ped66" depart="57680.76" type="ped_pedestrian">
        <personTrip from="840565795#1" to="887604835#2" modes="public"/>
    </person>
    <person id="ped67" depart="57681.98" type="ped_pedestrian">
        <personTrip from="-143482774#0" to="178028204#4" modes="public"/>
    </person>
    <person id="ped68" depart="57683.21" type="ped_pedestrian">
        <personTrip from="-143308493#4" to="630078162#9" modes="public"/>
    </person>
    <person id="ped69" depart="57684.43" type="ped_pedestrian">
        <personTrip from="647077436" to="-212454162#2" modes="public"/>
    </person>
    <person id="ped70" depart="57685.65" type="ped_pedestrian">
        <personTrip from="158236381" to="25944536#0" modes="public"/>
    </person>
    <person id="ped71" depart="57686.88" type="ped_pedestrian">
        <personTrip from="-586124055" to="840565787#1" modes="public"/>
    </person>
    <person id="ped72" depart="57688.10" type="ped_pedestrian">
        <personTrip from="142575737#4" to="-38915290#2" modes="public"/>
    </person>
    <person id="ped73" depart="57689.33" type="ped_pedestrian">
        <personTrip from="24931878#2" to="586124027" modes="public"/>
    </person>
    <person id="ped74" depart="57690.55" type="ped_pedestrian">
        <personTrip from="-38507369#0" to="-841976396#0" modes="public"/>
    </person>
    <person id="ped75" depart="57691.77" type="ped_pedestrian">
        <personTrip from="976390656#8" to="45642431#1" modes="public"/>
    </person>
    <person id="ped76" depart="57693.00" type="ped_pedestrian">
        <personTrip from="143308546#7" to="23913524#3" modes="public"/>
    </person>
    <person id="ped77" depart="57694.22" type="ped_pedestrian">
        <personTrip from="-20553015#1" to="-47765615#1" modes="public"/>
    </person>
    <person id="ped78" depart="57695.44" type="ped_pedestrian">
        <personTrip from="114952399#2" to="318210374" modes="public"/>
    </person>
    <person id="ped79" depart="57696.67" type="ped_pedestrian">
        <personTrip from="-52460499#12" to="-443454549#3" modes="public"/>
    </person>
    <person id="ped80" depart="57697.89" type="ped_pedestrian">
        <personTrip from="-143308521#12" to="397678498#0" modes="public"/>
    </person>
    <person id="ped81" depart="57699.11" type="ped_pedestrian">
        <personTrip from="-52081093#1" to="843190011#0" modes="public"/>
    </person>
    <person id="ped82" depart="57700.34" type="ped_pedestrian">
        <personTrip from="840221732#6" to="-143308521#12" modes="public"/>
    </person>
    <person id="ped83" depart="57701.56" type="ped_pedestrian">
        <personTrip from="-53529509#0" to="52460499#8" modes="public"/>
    </person>
    <person id="ped84" depart="57702.79" type="ped_pedestrian">
        <personTrip from="-403442279#1" to="-232757914#1" modes="public"/>
    </person>
    <person id="ped85" depart="57704.01" type="ped_pedestrian">
        <personTrip from="87843218" to="302944175#1" modes="public"/>
    </person>
    <person id="ped86" depart="57705.23" type="ped_pedestrian">
        <personTrip from="153021549#2" to="70130297#1" modes="public"/>
    </person>
    <person id="ped87" depart="57706.46" type="ped_pedestrian">
        <personTrip from="767962952" to="-328288211#1" modes="public"/>
    </person>
    <person id="ped88" depart="57707.68" type="ped_pedestrian">
        <personTrip from="-149670370#1" to="143308521#12" modes="public"/>
    </person>
    <person id="ped89" depart="57708.90" type="ped_pedestrian">
        <personTrip from="142575738#1" to="149670373#1" modes="public"/>
    </person>
    <person id="ped90" depart="57710.13" type="ped_pedestrian">
        <personTrip from="586124018" to="53385409" modes="public"/>
    </person>
    <person id="ped91" depart="57711.35" type="ped_pedestrian">
        <personTrip from="887919959#2" to="-149670384#0" modes="public"/>
    </person>
    <person id="ped92" depart="57712.57" type="ped_pedestrian">
        <personTrip from="142575690#6" to="115092088#8" modes="public"/>
    </person>
    <person id="ped93" depart="57713.80" type="ped_pedestrian">
        <personTrip from="840221735#1" to="-579026241" modes="public"/>
    </person>
    <person id="ped94" depart="57715.02" type="ped_pedestrian">
        <personTrip from="-328288211#0" to="143308685#1" modes="public"/>
    </person>
    <person id="ped95" depart="57716.25" type="ped_pedestrian">
        <personTrip from="142575735#0" to="-679901152#1" modes="public"/>
    </person>
    <person id="ped96" depart="57717.47" type="ped_pedestrian">
        <personTrip from="-579202713" to="843832577#1" modes="public"/>
    </person>
    <person id="ped97" depart="57718.69" type="ped_pedestrian">
        <personTrip from="143308608" to="840221734#0" modes="public"/>
    </person>
    <person id="ped98" depart="57719.92" type="ped_pedestrian">
        <personTrip from="25944590#2" to="-142575695#3" modes="public"/>
    </person>
    <person id="ped99" depart="57721.14" type="ped_pedestrian">
        <personTrip from="977639651#1" to="840221701#1" modes="public"/>
    </person>
    <person id="ped100" depart="57722.36" type="ped_pedestrian">
        <personTrip from="887625217#2" to="843832589#1" modes="public"/>
    </person>
    <person id="ped101" depart="57723.59" type="ped_pedestrian">
        <personTrip from="840221715#0" to="-26816737#1" modes="public"/>
    </person>
    <person id="ped102" depart="57724.81" type="ped_pedestrian">
        <personTrip from="178028204#2" to="-403442277#0" modes="public"/>
    </person>
    <person id="ped103" depart="57726.03" type="ped_pedestrian">
        <personTrip from="142575688#9" to="-142575710#7" modes="public"/>
    </person>
    <person id="ped104" depart="57727.26" type="ped_pedestrian">
        <personTrip from="140964905#2" to="891807897#1" modes="public"/>
    </person>
    <person id="ped105" depart="57728.48" type="ped_pedestrian">
        <personTrip from="-586124056" to="695812741" modes="public"/>
    </person>
    <person id="ped106" depart="57729.71" type="ped_pedestrian">
        <personTrip from="143482779#0" to="142575737#4" modes="public"/>
    </person>
    <person id="ped107" depart="57730.93" type="ped_pedestrian">
        <personTrip from="887612171#3" to="976390656#9" modes="public"/>
    </person>
    <person id="ped108" depart="57732.15" type="ped_pedestrian">
        <personTrip from="26004966#1" to="581145178" modes="public"/>
    </person>
    <person id="ped109" depart="57733.38" type="ped_pedestrian">
        <personTrip from="-257005614#7" to="-761918919" modes="public"/>
    </person>
    <person id="ped110" depart="57734.60" type="ped_pedestrian">
        <personTrip from="887625217#0" to="31344737#1" modes="public"/>
    </person>
    <person id="ped111" depart="57735.82" type="ped_pedestrian">
        <personTrip from="257072321#3" to="617755665" modes="public"/>
    </person>
    <person id="ped112" depart="57737.05" type="ped_pedestrian">
        <personTrip from="-142575704#7" to="314415495#5" modes="public"/>
    </person>
    <person id="ped113" depart="57738.27" type="ped_pedestrian">
        <personTrip from="206579064#0" to="840221724#2" modes="public"/>
    </person>
    <person id="ped114" depart="57739.49" type="ped_pedestrian">
        <personTrip from="-259433181#2" to="887625212#1" modes="public"/>
    </person>
    <person id="ped115" depart="57740.72" type="ped_pedestrian">
        <personTrip from="-143308673#0" to="-320153866" modes="public"/>
    </person>
    <person id="ped116" depart="57741.94" type="ped_pedestrian">
        <personTrip from="32235088#3" to="53529206#0" modes="public"/>
    </person>
    <person id="ped117" depart="57743.17" type="ped_pedestrian">
        <personTrip from="-53529255#5" to="-190083625#1" modes="public"/>
    </person>
    <person id="ped118" depart="57744.39" type="ped_pedestrian">
        <personTrip from="843189993#1" to="-543699380#0" modes="public"/>
    </person>
    <person id="ped119" depart="57745.61" type="ped_pedestrian">
        <personTrip from="32235088#11" to="38568633#2" modes="public"/>
    </person>
    <person id="ped120" depart="57746.84" type="ped_pedestrian">
        <personTrip from="142575725#3" to="314415495#3" modes="public"/>
    </person>
    <person id="ped121" depart="57748.06" type="ped_pedestrian">
        <personTrip from="24038605#0" to="875752724#0" modes="public"/>
    </person>
    <person id="ped122" depart="57749.28" type="ped_pedestrian">
        <personTrip from="-38568633#0" to="579671858" modes="public"/>
    </person>
    <person id="ped123" depart="57750.51" type="ped_pedestrian">
        <personTrip from="-53529557#1" to="142575679#5" modes="public"/>
    </person>
    <person id="ped124" depart="57751.73" type="ped_pedestrian">
        <personTrip from="53021668#1" to="-77761497#0" modes="public"/>
    </person>
    <person id="ped125" depart="57752.95" type="ped_pedestrian">
        <personTrip from="-845194206" to="630078120" modes="public"/>
    </person>
    <person id="ped126" depart="57754.18" type="ped_pedestrian">
        <personTrip from="-143308523#2" to="146511461#7" modes="public"/>
    </person>
    <person id="ped127" depart="57755.40" type="ped_pedestrian">
        <personTrip from="977374305#0" to="976735033#1" modes="public"/>
    </person>
    <person id="ped128" depart="57756.63" type="ped_pedestrian">
        <personTrip from="-143308523#6" to="-397678492#1" modes="public"/>
    </person>
    <person id="ped129" depart="57757.85" type="ped_pedestrian">
        <personTrip from="-586124056" to="872238234" modes="public"/>
    </person>
    <person id="ped130" depart="57759.07" type="ped_pedestrian">
        <personTrip from="841345130" to="840565795#8" modes="public"/>
    </person>
    <person id="ped131" depart="57760.30" type="ped_pedestrian">
        <personTrip from="138624445#16" to="-25944450#0" modes="public"/>
    </person>
    <person id="ped132" depart="57761.52" type="ped_pedestrian">
        <personTrip from="840101824#1" to="578659327#0" modes="public"/>
    </person>
    <person id="ped133" depart="57762.74" type="ped_pedestrian">
        <personTrip from="361138488" to="918501801" modes="public"/>
    </person>
    <person id="ped134" depart="57763.97" type="ped_pedestrian">
        <personTrip from="461093306#2" to="-122666828#2" modes="public"/>
    </person>
    <person id="ped135" depart="57765.19" type="ped_pedestrian">
        <personTrip from="81096584" to="-77761492" modes="public"/>
    </person>
    <person id="ped136" depart="57766.42" type="ped_pedestrian">
        <personTrip from="52081116#1" to="886496546#2" modes="public"/>
    </person>
    <person id="ped137" depart="57767.64" type="ped_pedestrian">
        <personTrip from="-23919022#2" to="-187122892#11" modes="public"/>
    </person>
    <person id="ped138" depart="57768.86" type="ped_pedestrian">
        <personTrip from="-172288753#0" to="25951597#2" modes="public"/>
    </person>
    <person id="ped139" depart="57770.09" type="ped_pedestrian">
        <personTrip from="-616846342" to="336335429#0" modes="public"/>
    </person>
    <person id="ped140" depart="57771.31" type="ped_pedestrian">
        <personTrip from="579690980" to="-38568632#0" modes="public"/>
    </person>
    <person id="ped141" depart="57772.53" type="ped_pedestrian">
        <personTrip from="398770009#2" to="-586124050" modes="public"/>
    </person>
    <person id="ped142" depart="57773.76" type="ped_pedestrian">
        <personTrip from="180789857#13" to="843190011#0" modes="public"/>
    </person>
    <person id="ped143" depart="57774.98" type="ped_pedestrian">
        <personTrip from="840221713#2" to="-149611511#0" modes="public"/>
    </person>
    <person id="ped144" depart="57776.20" type="ped_pedestrian">
        <personTrip from="142575738#1" to="-670062930#4" modes="public"/>
    </person>
    <person id="ped145" depart="57777.43" type="ped_pedestrian">
        <personTrip from="-114952399#1" to="670062902#2" modes="public"/>
    </person>
    <person id="ped146" depart="57778.65" type="ped_pedestrian">
        <personTrip from="40191607#4" to="-586124039" modes="public"/>
    </person>
    <person id="ped147" depart="57779.88" type="ped_pedestrian">
        <personTrip from="590751241" to="25944605" modes="public"/>
    </person>
    <person id="ped148" depart="57781.10" type="ped_pedestrian">
        <personTrip from="142598716#1" to="-126520112" modes="public"/>
    </person>
    <person id="ped149" depart="57782.32" type="ped_pedestrian">
        <personTrip from="-143308562#10" to="841345143#1" modes="public"/>
    </person>
    <person id="ped150" depart="57783.55" type="ped_pedestrian">
        <personTrip from="843190007#3" to="25728863#2" modes="public"/>
    </person>
    <person id="ped151" depart="57784.77" type="ped_pedestrian">
        <personTrip from="840221700#0" to="314415495#16" modes="public"/>
    </person>
    <person id="ped152" depart="57785.99" type="ped_pedestrian">
        <personTrip from="-245105008#0" to="-212453974#1" modes="public"/>
    </person>
    <person id="ped153" depart="57787.22" type="ped_pedestrian">
        <personTrip from="-840101825" to="843190001#14" modes="public"/>
    </person>
    <person id="ped154" depart="57788.44" type="ped_pedestrian">
        <personTrip from="71960516#0" to="840221733#5" modes="public"/>
    </person>
    <person id="ped155" depart="57789.66" type="ped_pedestrian">
        <personTrip from="843190001#14" to="-38574190#0" modes="public"/>
    </person>
    <person id="ped156" depart="57790.89" type="ped_pedestrian">
        <personTrip from="-579048920" to="-158228538#1" modes="public"/>
    </person>
    <person id="ped157" depart="57792.11" type="ped_pedestrian">
        <personTrip from="685462075#0" to="841976393" modes="public"/>
    </person>
    <person id="ped158" depart="57793.34" type="ped_pedestrian">
        <personTrip from="142575693#7" to="38568644" modes="public"/>
    </person>
    <person id="ped159" depart="57794.56" type="ped_pedestrian">
        <personTrip from="-257005614#5" to="849775802#3" modes="public"/>
    </person>
    <person id="ped160" depart="57795.78" type="ped_pedestrian">
        <personTrip from="840221736" to="887862705#3" modes="public"/>
    </person>
    <person id="ped161" depart="57797.01" type="ped_pedestrian">
        <personTrip from="780225326#1" to="841345134#3" modes="public"/>
    </person>
    <person id="ped162" depart="57798.23" type="ped_pedestrian">
        <personTrip from="-138624445#13" to="586124064#2" modes="public"/>
    </person>
    <person id="ped163" depart="57799.45" type="ped_pedestrian">
        <personTrip from="114207227" to="849775803" modes="public"/>
    </person>
    <person id="ped164" depart="57800.68" type="ped_pedestrian">
        <personTrip from="721625614#1" to="840221735#7" modes="public"/>
    </person>
    <person id="ped165" depart="57801.90" type="ped_pedestrian">
        <personTrip from="780225326#1" to="-586124064#0" modes="public"/>
    </person>
    <person id="ped166" depart="57803.12" type="ped_pedestrian">
        <personTrip from="70214888#1" to="-175355420#0" modes="public"/>
    </person>
    <person id="ped167" depart="57804.35" type="ped_pedestrian">
        <personTrip from="840565787#0" to="840221732#1" modes="public"/>
    </person>
    <person id="ped168" depart="57805.57" type="ped_pedestrian">
        <personTrip from="-45875459#4" to="81096582#1" modes="public"/>
    </person>
    <person id="ped169" depart="57806.80" type="ped_pedestrian">
        <personTrip from="147859763#4" to="-822215319" modes="public"/>
    </person>
    <person id="ped170" depart="57808.02" type="ped_pedestrian">
        <personTrip from="71596029#2" to="-520414189" modes="public"/>
    </person>
    <person id="ped171" depart="57809.24" type="ped_pedestrian">
        <personTrip from="-138624445#0" to="-33690600" modes="public"/>
    </person>
    <person id="ped172" depart="57810.47" type="ped_pedestrian">
        <personTrip from="114024900" to="840221735#9" modes="public"/>
    </person>
    <person id="ped173" depart="57811.69" type="ped_pedestrian">
        <personTrip from="887625216#15" to="-683972873#0" modes="public"/>
    </person>
    <person id="ped174" depart="57812.91" type="ped_pedestrian">
        <personTrip from="412814194#0" to="142575688#10" modes="public"/>
    </person>
    <person id="ped175" depart="57814.14" type="ped_pedestrian">
        <personTrip from="887910341#6" to="24791992" modes="public"/>
    </person>
    <person id="ped176" depart="57815.36" type="ped_pedestrian">
        <personTrip from="886496552#0" to="-187122892#10" modes="public"/>
    </person>
    <person id="ped177" depart="57816.58" type="ped_pedestrian">
        <personTrip from="887637451#1" to="-314415495#17" modes="public"/>
    </person>
    <person id="ped178" depart="57817.81" type="ped_pedestrian">
        <personTrip from="887625214#12" to="-586124057" modes="public"/>
    </person>
    <person id="ped179" depart="57819.03" type="ped_pedestrian">
        <personTrip from="-175355422#0" to="143308527#3" modes="public"/>
    </person>
    <person id="ped180" depart="57820.26" type="ped_pedestrian">
        <personTrip from="586124013" to="-843832580" modes="public"/>
    </person>
    <person id="ped181" depart="57821.48" type="ped_pedestrian">
        <personTrip from="33691719#1" to="213883654" modes="public"/>
    </person>
    <person id="ped182" depart="57822.70" type="ped_pedestrian">
        <personTrip from="142575655#13" to="312192832#1" modes="public"/>
    </person>
    <person id="ped183" depart="57823.93" type="ped_pedestrian">
        <personTrip from="-581596948" to="579026240#0" modes="public"/>
    </person>
    <person id="ped184" depart="57825.15" type="ped_pedestrian">
        <personTrip from="-114207227" to="843832588#0" modes="public"/>
    </person>
    <person id="ped185" depart="57826.37" type="ped_pedestrian">
        <personTrip from="24931845#0" to="581596938" modes="public"/>
    </person>
    <person id="ped186" depart="57827.60" type="ped_pedestrian">
        <personTrip from="59461375#2" to="527170115#2" modes="public"/>
    </person>
    <person id="ped187" depart="57828.82" type="ped_pedestrian">
        <personTrip from="138624421#25" to="-143308505#2" modes="public"/>
    </person>
    <person id="ped188" depart="57830.04" type="ped_pedestrian">
        <personTrip from="52081116#2" to="114025356#0" modes="public"/>
    </person>
    <person id="ped189" depart="57831.27" type="ped_pedestrian">
        <personTrip from="-843832585#1" to="840221714#3" modes="public"/>
    </person>
    <person id="ped190" depart="57832.49" type="ped_pedestrian">
        <personTrip from="581596940" to="-780225324" modes="public"/>
    </person>
    <person id="ped191" depart="57833.72" type="ped_pedestrian">
        <personTrip from="-841345129#4" to="142575699#2" modes="public"/>
    </person>
    <person id="ped192" depart="57834.94" type="ped_pedestrian">
        <personTrip from="142575690#5" to="-722869705#0" modes="public"/>
    </person>
    <person id="ped193" depart="57836.16" type="ped_pedestrian">