<tazs>
    <taz id="0_1" shape="-499.0,501.0 499.0,501.0 499.0,1499.0 -499.0,1499.0 -499.0,501.0" color="0,247,255" edges="-145586617#9 145586617#6"/>
    <taz id="1_0" shape="501.0,-499.0 1499.0,-499.0 1499.0,499.0 501.0,499.0 501.0,-499.0" color="175,255,0" edges="-145586617#0 -145586617#1 -145586617#2 -145586617#3 -145586617#4 -145586617#5 -212452093#0 -212452093#1 -212452093#2 -212452093#3 -31763024#0 -31763024#1 -31763024#2 145586617#0 145586617#1 145586617#2 145586617#3 145586617#4 145586617#5 212452093#0 212452093#1 212452093#2 212452093#3 31763024#0 31763024#1 31763024#2"/>
    <taz id="1_1" shape="501.0,501.0 1499.0,501.0 1499.0,1499.0 501.0,1499.0 501.0,501.0" color="255,0,165" edges="-138624421#1 -138624421#10 -138624421#11 -138624421#12 -138624421#13 -138624421#14 -138624421#15 -138624421#18 -138624421#19 -138624421#2 -138624421#21 -138624421#24 -138624421#25 -138624421#27 -138624421#29 -138624421#31 -138624421#32 -138624421#33 -138624421#34 -138624421#5 -138624421#7 -138624421#9 -138624426 -138624432#1 -138624445#0 -138624445#1 -138624445#10 -138624445#11 -138624445#12 -138624445#13 -138624445#14 -138624445#15 -138624445#16 -138624445#17 -138624445#18 -138624445#3 -138624445#4 -138624445#5 -138624445#7 -138624445#8 -138624445#9 -138624452#0 -138624469#1 -138624469#10 -138624469#11 -138624469#12 -138624469#2 -138624469#3 -138624469#4 -138624469#5 -138624469#6 -138624469#7 -138624469#8 -138624469#9 -138624477#6 -138624477#7 -141968830#0 -141968830#1 -141968830#2 -141968853#0 -141968853#1 -141968853#2 -152447118#0 -152447118#1 -152447118#2 -152447118#3 -152447118#4 -152447118#5 -206579060#1 -38568627#1 -38568627#2 -38568628#1 -38568628#2 -38568629#1 -38568633#0 -38568633#1 -38568633#2 -38574183#0 -38574183#1 -46150482#0 -52460499#0 -52460499#1 -52460499#11 -52460499#12 -52460499#2 -52460499#3 -52460499#5 -52460499#6 -52460499#7 -52460499#8 -52460499#9 138624421#1 138624421#10 138624421#11 138624421#12 138624421#13 138624421#14 138624421#15 138624421#18 138624421#19 138624421#2 138624421#21 138624421#24 138624421#25 138624421#27 138624421#29 138624421#31 138624421#32 138624421#33 138624421#34 138624421#5 138624421#7 138624421#9 138624426 138624432#1 138624445#0 138624445#1 138624445#10 138624445#11 138624445#12 138624445#13 138624445#14 138624445#15 138624445#16 138624445#17 138624445#18 138624445#3 138624445#4 138624445#5 138624445#7 138624445#8 138624445#9 138624452#0 138624469#1 138624469#10 138624469#11 138624469#12 138624469#2 138624469#3 138624469#4 138624469#5 138624469#6 138624469#7 138624469#8 138624469#9 138624477#6 138624477#7 141873658#0 141873658#1 141968799 141968807#0 141968807#1 141968810#0 141968810#1 141968814#0 141968814#1 141968823#0 141968823#1 141968830#1 141968830#2 141968844#1 141968844#2 141968844#3 141968844#4 141968844#5 141968844#6 141968844#7 141968844#8 141968853#0 141968853#1 141968853#2 141968913#0 141968913#1 145586634 145586635 146511465 146511467 152447118#0 152447118#1 152447118#2 152447118#3 152447118#4 152447118#5 180239842 206579083 206579084 206579090#0 292525976 292525978 318210400#0 320744674#0 320744687 320744688 38568627#1 38568627#2 38568628#1 38568628#2 38568629#1 38568633#0 38568633#1 38568633#2 38574183#1 38574183#2 46150482#0 52460499#0 52460499#1 52460499#11 52460499#12 52460499#2 52460499#3 52460499#5 52460499#6 52460499#7 52460499#8 52460499#9 96834893"/>
    <taz id="1_2" shape="501.0,1501.0 1499.0,1501.0 1499.0,2499.0 501.0,2499.0 501.0,1501.0" color="255,133,0" edges="-138624434#0 -138624438#0 -138624438#1 -138624438#2 -138624438#3 -138624438#4 -138624438#5 -138624438#6 -138624452#1 -138624452#2 -138624452#3 -138624477#0 -138624477#2 -138624477#3 -138624477#4 -138624477#5 -38568630#0 -38568630#1 -38568630#2 -38568630#4 -38568632#0 -38568632#1 -38568632#3 138624434#0 138624438#0 138624438#1 138624438#2 138624438#3 138624438#4 138624438#5 138624438#6 138624452#1 138624452#2 138624452#3 138624477#0 138624477#2 138624477#3 138624477#4 138624477#5 38568630#0 38568630#1 38568630#2 38568630#4 38568632#0 38568632#1 38568632#3"/>
    <taz id="2_0" shape="1501.0,-499.0 2499.0,-499.0 2499.0,499.0 1501.0,499.0 1501.0,-499.0" color="255,46,0" edges="-143308485 -143308566#0 -143308566#1 -143308566#2 -143308601#0 -143308601#1 -143308601#2 -169076556#0 -169076556#1 -169076556#2 -169076556#3 -169076559#1 -169076559#2 -190083616 -318210395 -334170244 -46150481#0 -46150481#1 -71960633#0 -71960633#1 -71960633#2 -73058506#1 -73058506#2 -73058506#3 -81096611#1 -81096611#2 143308484 143308515 143308566#0 143308566#1 143308566#2 143308601#0 143308601#1 143308601#2 169076556#0 169076556#1 169076556#2 169076556#3 169076559#1 169076559#2 190083616 292525973 318210395 46150481#0 46150481#1 71960633#0 71960633#1 71960633#2 73058506#1 73058506#2 73058506#3 81096611#1 81096611#2 860314547"/>
    <taz id="2_1" shape="1501.0,501.0 2499.0,501.0 2499.0,1499.0 1501.0,1499.0 1501.0,501.0" color="255,38,0" edges="-135777010#0 -135777010#1 -135777010#2 -135777010#5 -135777010#6 -135777010#9 -135777011#1 -135777011#2 -135777011#4 -142575655#1 -142575655#10 -142575655#12 -142575655#13 -142575655#2 -142575655#5 -142575655#6 -142575655#7 -142575657#1 -142575657#10 -142575657#3 -142575657#4 -142575657#6 -142575657#9 -142575658#1 -142575658#2 -142575658#3 -142575659#0 -142575659#1 -142575659#2 -142575659#3 -142575662#1 -142575662#2 -142575662#5 -142575662#6 -142575673#0 -142575673#1 -142575679#1 -142575679#2 -142575679#3 -142575679#5 -142575679#6 -142575679#7 -142575679#8 -142575679#9 -142575684#0 -142575684#1 -142575684#4 -142575684#6 -142575687#1 -142575687#2 -142575688#10 -142575688#3 -142575688#5 -142575688#6 -142575688#7 -142575688#8 -142575688#9 -142575689#1 -142575689#2 -142575690#0 -142575690#1 -142575690#2 -142575690#3 -142575690#5 -142575690#6 -142575690#7 -142575690#8 -142575691#1 -142575691#2 -142575699#1 -142575699#2 -142575699#3 -142575699#4 -142575710#1 -143308521#1 -143308521#11 -143308521#12 -143308521#13 -143308521#2 -143308521#3 -143308521#4 -143308521#9 -143308562#1 -143308562#10 -143308562#2 -143308562#3 -143308562#4 -143308562#6 -143308570 -147859763#0 -147859763#1 -147859763#4 -172014854#0 -172014854#1 -190083608#0 -190083610#0 -190083610#1 -190083618#1 -206579061 -206579062#0 -206579062#3 -206579063#0 -206579064#0 -206579064#2 -24214694#3 -24214694#4 -24214694#5 -24733698#0 -24733698#1 -24733698#2 -283317455#1 -318210378#1 -318210380#1 -38507369#0 -38507369#1 -38507369#2 -38915289#0 -38915289#1 -38915289#4 -38915289#5 -38915289#6 -38915290#1 -52081075#2 -52081075#3 -52081075#4 -543074338 -71028774#0 -71028774#1 -71028777#0 -71028777#1 -71028777#2 -71028777#3 -71028777#5 -802021414#1 -802021414#3 -802021414#5 -802021414#6 -887919959#2 -887919959#3 -887919959#4 135777010#0 135777010#1 135777010#10 135777010#2 135777010#5 135777010#6 135777010#9 135777011#0 135777011#2 135777011#4 142575655#1 142575655#10 142575655#12 142575655#13 142575655#2 142575655#5 142575655#6 142575655#7 142575657#1 142575657#10 142575657#3 142575657#4 142575657#6 142575657#9 142575658#1 142575658#2 142575658#3 142575659#0 142575659#1 142575659#2 142575659#3 142575662#1 142575662#2 142575662#5 142575662#6 142575673#0 142575673#1 142575679#1 142575679#2 142575679#3 142575679#5 142575679#6 142575679#7 142575679#8 142575679#9 142575684#0 142575684#1 142575684#4 142575684#6 142575685#0 142575685#1 142575686#1 142575686#2 142575686#3 142575686#4 142575686#5 142575687#1 142575687#2 142575688#10 142575688#3 142575688#5 142575688#6 142575688#7 142575688#8 142575688#9 142575689#1 142575689#2 142575690#0 142575690#1 142575690#2 142575690#3 142575690#5 142575690#6 142575690#7 142575690#8 142575691#1 142575691#2 142575691#4 142575692#1 142575692#2 142575692#4 142575692#5 142575692#6 142575692#7 142575693#1 142575693#2 142575693#3 142575693#4 142575693#5 142575693#6 142575693#7 142575699#1 142575699#2 142575699#3 142575699#4 142575710#1 143308493#1 143308521#1 143308521#11 143308521#12 143308521#13 143308521#2 143308521#3 143308521#4 143308521#9 143308532#1 143308532#4 143308532#7 143308542#1 143308542#3 143308542#4 143308542#6 143308542#8 143308546#0 143308546#1 143308546#3 143308546#7 143308546#8 143308562#1 143308562#10 143308562#2 143308562#3 143308562#4 143308562#6 143308570 143308587#1 143308590#0 147859763#1 147859763#4 16942869 172014854#0 172014854#1 180239847 180239858#0 180789857#1 180789857#2 180789857#3 180789857#4 180789857#5 190083608#1 190083610#0 190083610#1 190083618#0 206579057 206579058#1 206579061 206579062#0 206579062#2 206579063#0 206579063#1 206579064#0 206579064#1 224769559 22762377 22762377-AddedOffRampEdge 24214694#3 24214694#4 24214694#5 24733698#0 24733698#1 24733698#2 257072321#10 257072321#11 257072321#12 257072321#7 257072321#8 257072321#9 257072322#2 257072322#3 259433184#0 259466417#0 259466417#1 259466417#2 259466417#3 259466417#4 283317455#0 292525975 313964778#0 313964778#1 313964778#2 318210363#0 320741893 320741894#1 320741895#0 326994261#1 38507369#0 38507369#1 38507369#2 38915289#0 38915289#1 38915289#4 38915289#5 38915289#6 38915290#1 412992929#1 412992929#2 412992929#3 412992935#1 412992935#2 46039050#1 46039050#4 46039050#7 46039051#1 46150483#0 46150483#1 52081075#3 52081075#4 543074338 582467484#1 670062902#2 71028774#0 71028774#1 71028777#0 71028777#1 71028777#2 71028777#3 71028777#5 802021414#1 802021414#3 802021414#5 802021414#6 887919959#2 887919959#3 887919959#4"/>
    <taz id="2_2" shape="1501.0,1501.0 2499.0,1501.0 2499.0,2499.0 1501.0,2499.0 1501.0,1501.0" color="89,255,0" edges="-135777010#10 -135777010#11 -135777010#14 -135777010#16 -135777010#17 -135777010#18 -135777010#19 -135777010#20 -135777010#21 -259433181#0 -259433181#1 -259433181#2 -334308450#0 -38915290#2 118262353#2 135777010#11 135777010#14 135777010#15 135777010#17 135777010#18 135777010#19 135777010#20 135777010#21 180789857#10 180789857#11 180789857#12 180789857#13 180789857#14 180789857#15 180789857#16 180789857#17 180789857#7 180789857#8 180789857#9 231626692#0 231626692#1 257072321#0 257072321#1 257072321#2 257072321#3 257072321#4 259433180 259433181#0 259433181#1 259433181#2 259433182#0 259433182#1 259433182#10 259433182#11 259433182#12 259433182#2 259433182#3 259433182#4 259433182#5 259433182#7 259433182#8 259433182#9 334308450#0 38915290#2 52081116#1 52081116#11 52081116#12 52081116#13 52081116#2 52081116#3 52081116#4 52081116#5 52081116#6 52081116#7 52081116#8 52081116#9 578659321#0 578659322#0 578659322#1 70130339#0 70130339#1 70130339#2 70130339#3 70130339#4 8025704#0"/>
    <taz id="3_0" shape="2501.0,-499.0 3499.0,-499.0 3499.0,499.0 2501.0,499.0 2501.0,-499.0" color="0,42,255" edges="-12749623 -142575704#22 -142575704#23 -143308523#0 -143308523#1 -143308523#2 -143308523#3 -143308523#4 -143308523#5 -143308523#6 -143308523#7 -143308523#8 -143308523#9 -144909690 -152470901 -169076542 -221111489 -24038573#0 -24038573#1 -24038573#2 -30978409#1 -318210362 -318210371#0 -318210386#1 -318210387 -347935096#6 -375685717#0 -375685717#1 -375685718#0 -375685718#1 -574527503 -578917008 -81096611#0 -81639678#0 -895850896 12749623 142575667#0 142575704#23 143308523#0 143308523#1 143308523#2 143308523#3 143308523#4 143308523#5 143308523#6 143308523#7 143308523#8 143308523#9 144909690 152470901 169076542 221111489 24038573#0 24038573#1 24038573#2 30978409#1 318210364#1 318210366 318210367#2 318210371#2 318210383#0 318210388#0 347935096#6 375685717#0 375685717#1 375685718#0 375685718#1 382647882 48858191#1 48858193#1 574527503 81096611#0 81639678#0 81639678#1 895850896"/>
    <taz id="3_1" shape="2501.0,501.0 3499.0,501.0 3499.0,1499.0 2501.0,1499.0 2501.0,501.0" color="168,255,0" edges="-137483014#0 -137483015#0 -137483015#2 -137483015#3 -137534616#4 -142575656#0 -142575656#1 -142575656#10 -142575656#11 -142575656#12 -142575656#14 -142575656#15 -142575656#3 -142575656#4 -142575656#5 -142575656#7 -142575656#8 -142575656#9 -142575661#1 -142575661#2 -142575661#3 -142575661#4 -142575661#5 -142575672#2 -142575672#3 -142575672#4 -142575674#1 -142575674#2 -142575674#5 -142575688#0 -142575688#1 -142575688#2 -142575691#4 -142575691#5 -142575694#0 -142575694#1 -142575694#2 -142575694#3 -142575694#4 -142575695#0 -142575695#1 -142575695#2 -142575695#3 -142575700#6 -142575701#0 -142575701#2 -142575701#3 -142575701#4 -142575701#5 -142575704#10 -142575704#12 -142575704#13 -142575704#14 -142575704#15 -142575704#16 -142575704#17 -142575704#19 -142575704#2 -142575704#20 -142575704#21 -142575704#3 -142575704#4 -142575704#5 -142575704#7 -142575709#0 -142575709#1 -142575710#7 -143308493#1 -143308493#2 -143308493#3 -143308493#4 -143308505#1 -143308505#2 -143308505#3 -143308505#4 -143308527#0 -143308527#1 -143308527#3 -143308527#4 -147859765#0 -147859765#1 -147859765#2 -147859765#3 -147859765#4 -147859765#7 -147859765#8 -149611511#0 -149611511#1 -149611511#2 -149611511#3 -149611514#0 -149611514#1 -149611526#0 -149611526#1 -166142951#0 -166142951#1 -172013798#4 -172013798#5 -172013798#6 -23925119#0 -23925119#1 -23925122#0 -23925122#1 -23925122#2 -23925124#0 -23925124#1 -23925124#2 -26991766#1 -26991766#12 -26991766#13 -26991766#14 -26991766#15 -26991766#16 -26991766#17 -26991766#3 -26991766#4 -26991766#5 -26991766#6 -26991766#7 -26991766#9 -31050360#2 -314415495#0 -314415495#1 -314415495#10 -314415495#11 -314415495#12 -314415495#13 -314415495#14 -314415495#15 -314415495#16 -314415495#17 -314415495#19 -314415495#21 -314415495#22 -314415495#25 -314415495#3 -314415495#4 -314415495#5 -314415495#6 -314415495#7 -314415495#8 -314415495#9 -318210361#0 -318210361#2 -318210367#0 -318210369 -318210373#0 -318210373#1 -318210373#2 -318210377#0 -318210378#0 -318210394#0 -33690600 -38159999#0 -38159999#1 -38159999#10 -38159999#2 -38159999#3 -38159999#4 -38159999#6 -38159999#7 -38159999#8 -38159999#9 -38160000 -52080655#2 -582467484#0 -670062913#1 -683972872 -683972873#0 -683972873#1 -683972875#0 -683972875#1 -683972875#2 -81639685#2 -841345129#1 -841345129#2 -841345129#4 -841345129#6 -841345129#7 -841345135#0 -841345135#1 -843190005#2 -843190005#3 -843190005#4 -887919960#0 -887919960#4 -887919960#5 137483015#2 137483015#3 137483015#5 137534616#4 142575656#0 142575656#1 142575656#10 142575656#11 142575656#12 142575656#14 142575656#15 142575656#3 142575656#4 142575656#5 142575656#7 142575656#8 142575656#9 142575661#1 142575661#2 142575661#3 142575661#4 142575661#5 142575672#0 142575672#3 142575672#4 142575674#1 142575674#2 142575674#4 142575678#2 142575688#0 142575688#1 142575688#2 142575691#5 142575694#0 142575694#1 142575694#2 142575694#3 142575694#4 142575695#0 142575695#1 142575695#2 142575695#3 142575701#0 142575701#2 142575701#3 142575701#4 142575701#5 142575704#10 142575704#12 142575704#13 142575704#14 142575704#15 142575704#16 142575704#17 142575704#19 142575704#2 142575704#20 142575704#21 142575704#22 142575704#3 142575704#4 142575704#5 142575704#7 142575709#1 142575710#7 143308493#2 143308493#3 143308493#4 143308505#1 143308505#2 143308505#3 143308505#4 143308527#0 143308527#1 143308527#3 143308527#4 143308527#5 143308542#12 143308542#13 143308542#14 143308542#15 143308549#1 143308549#2 143308549#3 143308552#1 147859764 147859765#1 147859765#2 147859765#3 147859765#4 147859765#7 147859765#8 147859766 149611511#0 149611511#1 149611511#2 149611511#3 149611514#0 149611514#1 149611526#0 149611526#1 153021549#1 153021549#2 153021549#3 153021549#4 153021549#5 166142951#0 166142951#1 172013798#4 172013798#5 172013798#6 204721578#0 23925119#0 23925119#1 23925122#0 23925122#1 23925122#2 23925124#1 23925124#2 26991766#1 26991766#12 26991766#13 26991766#14 26991766#15 26991766#16 26991766#17 26991766#3 26991766#4 26991766#5 26991766#6 26991766#7 26991766#9 31050360#1 314415495#0 314415495#1 314415495#10 314415495#11 314415495#12 314415495#13 314415495#14 314415495#15 314415495#16 314415495#17 314415495#19 314415495#21 314415495#22 314415495#25 314415495#3 314415495#4 314415495#5 314415495#6 314415495#7 314415495#8 314415495#9 318210361#0 318210361#1 318210373#0 318210373#1 318210373#2 318210377#0 318210377#1 318210378#0 318210378#1 318210389#0 318210394#0 33690600 38159999#0 38159999#1 38159999#10 38159999#2 38159999#3 38159999#4 38159999#6 38159999#7 38159999#8 38159999#9 38160000 38160001#0 40191606#0 40191606#2 40191606#3 461514282#0 461514282#1 48858192#1 52036180#1 52080655#0 52081075#1 52243916#1 541676219 670062907#1 670062907#2 670062907#4 670062908#1 670062909#1 670062912#1 670062913#1 677933664#4 683972873#1 683972873#2 683972875#1 683972875#2 683972875#3 72230304#1 81639675#1 81639675#2 81639675#3 81639675#4 81639685#1 841345129#2 841345129#4 841345129#5 841345129#7 841345135#0 841345135#1 843190005#2 843190005#3 843190005#4 887919960#4 887919960#5 976351540#1"/>
    <taz id="3_2" shape="2501.0,1501.0 3499.0,1501.0 3499.0,2499.0 2501.0,2499.0 2501.0,1501.0" color="0,255,136" edges="-140964905#2 -140964924 -142575677#0 -142575677#1 -142575677#2 -142575700#0 -142575700#1 -142575700#2 -142575700#3 -142575700#4 -142575700#5 -152839426 -152839428 -166142947 -166142948 -178028204#2 -178028204#3 -178028204#4 -178028204#9 -187123053#0 -187123053#1 -187123053#2 -20553015#0 -20553015#1 -20553068#0 -20553068#1 -20553068#2 -23913526#0 -334308447#0 -334308447#1 -334308447#10 -334308447#4 -334308447#6 -334308447#8 -334308450#1 -45875465 -679901152#1 -841345129#0 140964905#2 140964924 142575677#0 142575677#1 142575677#2 142575677#3 142575700#0 142575700#1 142575700#2 142575700#3 142575700#4 142575700#5 142575700#6 152839426 152839428 166142947 178028204#2 178028204#3 178028204#4 178028204#9 187123053#0 187123053#1 187123053#2 20553015#0 20553015#1 20553068#0 20553068#1 20553068#2 20553068#3 206889086#1 23913526#0 23925123 23925124#0 24152326#0 24152326#1 318210355 318210394#2 334308447#1 334308447#10 334308447#4 334308447#6 334308447#8 334308450#1 40191607#2 40191607#3 40191607#4 414563781 45875465 52036180#3 679901152#0 841345129#1"/>
    <taz id="4_0" shape="3501.0,-499.0 4499.0,-499.0 4499.0,499.0 3501.0,499.0 3501.0,-499.0" color="255,41,0" edges="-347935096#0 -347935096#1 -347935096#2 -347935096#3 -347935096#4 -347935096#5 347935096#0 347935096#1 347935096#2 347935096#3 347935096#4 347935096#5"/>
    <taz id="4_1" shape="3501.0,501.0 4499.0,501.0 4499.0,1499.0 3501.0,1499.0 3501.0,501.0" color="15,0,255" edges="-137534616#3 -146511461#1 -146511461#2 -146511461#3 -146511461#4 -146511461#5 -146511461#6 -146511461#7 -146511461#8 -146511461#9 -149611511#4 -149611514#2 -149611514#3 -149611514#4 -149611514#5 -149611514#6 -149611514#7 -149611514#8 -149611524#0 -149611524#1 -149611524#2 -187122892#0 -187122892#1 -187122892#10 -187122892#11 -187122892#12 -187122892#13 -187122892#2 -187122892#3 -187122892#5 -187122892#6 -187122892#7 -187122892#8 -187122892#9 -23913524#2 -23913524#3 -23913524#4 -43660343#0 -43660343#1 10735918#0 137534616#3 146511461#0 146511461#2 146511461#3 146511461#4 146511461#5 146511461#6 146511461#7 146511461#8 146511461#9 149611511#4 149611514#2 149611514#3 149611514#4 149611514#5 149611514#6 149611514#7 149611514#8 149611524#0 149611524#1 149611524#2 152839434#1 153021549#0 153021553 187122892#0 187122892#1 187122892#10 187122892#11 187122892#12 187122892#13 187122892#2 187122892#3 187122892#5 187122892#6 187122892#7 187122892#8 187122892#9 190928926#0 192204854#0 204721579#2 204721579#4 204721579#6 207086005 23913524#2 23913524#3 23913524#4 27087586#1 27087586#2 318210353 318210360#0 318210374 39969574#2 40191605#0 40191605#2 43660343#0 43660343#1 48298278#0 670062919#0 670062919#1 800655351 800655352 977639651#1 977639652"/>
    <taz id="4_2" shape="3501.0,1501.0 4499.0,1501.0 4499.0,2499.0 3501.0,2499.0 3501.0,1501.0" color="107,0,255" edges="-137534616#0 -137534616#1 -137534616#2 -149611534#0 -149611534#1 -149611534#2 -178028204#0 -178028204#1 -23788323 -23913524#0 -23913524#1 -25771472 137534616#0 137534616#1 137534616#2 140964915 149611534#0 149611534#1 149611534#2 178028204#0 178028204#1 23788323 23913524#0 23913524#1 25771472"/>
</tazs>
