<?xml version="1.0" encoding="UTF-8"?>

<!-- generated on Wed Sep 30 16:04:58 2020 by Eclipse SUMO netconvert Version 1.7.0
<configuration xmlns:xsi="http://www.w3.org/2001/XMLSchema-instance" xsi:noNamespaceSchemaLocation="http://sumo.dlr.de/xsd/netconvertConfiguration.xsd">

    <input>
        <type-files value="/home/kobo/dlr/sumo/data/typemap/osmNetconvert.typ.xml,/home/kobo/dlr/sumo/data/typemap/osmNetconvertUrbanDe.typ.xml,/home/kobo/dlr/sumo/data/typemap/osmNetconvertPedestrians.typ.xml"/>
        <osm-files value="osm_bbox.osm.xml"/>
    </input>

    <output>
        <output-file value="osm.net.xml"/>
        <output.street-names value="true"/>
        <output.original-names value="true"/>
        <ptstop-output value="osm_stops.add.xml"/>
        <ptline-output value="osm_ptlines.xml"/>
    </output>

    <projection>
        <proj.utm value="true"/>
    </projection>

    <processing>
        <geometry.remove value="true"/>
        <roundabouts.guess value="true"/>
    </processing>

    <tls_building>
        <tls.discard-simple value="true"/>
        <tls.join value="true"/>
        <tls.guess-signals value="true"/>
        <tls.default-type value="actuated"/>
    </tls_building>

    <ramp_guessing>
        <ramps.guess value="true"/>
    </ramp_guessing>

    <junctions>
        <junctions.join value="true"/>
        <junctions.corner-detail value="5"/>
    </junctions>

    <pedestrian>
        <crossings.guess value="true"/>
    </pedestrian>

    <railway>
        <railway.topology.repair value="true"/>
        <railway.topology.repair.stop-turn value="true"/>
    </railway>

    <report>
        <verbose value="true"/>
        <aggregate-warnings value="5"/>
    </report>

</configuration>
-->

<additional xmlns:xsi="http://www.w3.org/2001/XMLSchema-instance" xsi:noNamespaceSchemaLocation="http://sumo.dlr.de/xsd/additional_file.xsd">
    <busStop id="-1094134880" name="Johannes-Sasse-Ring" lane="-141968799_1" startPos="401.10" endPos="416.10" friendlyPos="true" lines="160"/>
    <busStop id="-1383533494" name="Büchnerweg" lane="-23913524#2_1" startPos="75.80" endPos="90.80" friendlyPos="true" lines="164 162"/>
    <busStop id="-1383533578" name="Radickestraße/Nipkowstraße" lane="-137534616#0_1" startPos="26.31" endPos="41.31" friendlyPos="true" lines="164 162"/>
    <busStop id="-1553912606" name="Akeleiweg" lane="-141968830#1_1" startPos="29.08" endPos="44.08" friendlyPos="true" lines="160"/>
    <busStop id="-1560223555" name="Am Studio/Köpenicker Straße" lane="-314415495#3_1" startPos="89.28" endPos="104.28" friendlyPos="true" lines="260"/>
    <busStop id="-1560223790" name="Wilhelm-Ostwald-Straße" lane="-314415495#6_1" startPos="0.00" endPos="14.09" friendlyPos="true" lines="260"/>
    <busStop id="-1906421953" name="S Adlershof" lane="-45875465_1" startPos="33.45" endPos="41.28" friendlyPos="true" lines="N65 N68 N60"/>
    <busStop id="-385200818" name="Albert-Einstein-Straße" lane="-314415495#16_1" startPos="0.00" endPos="9.00" friendlyPos="true" lines="260"/>
    <busStop id="-4922203169" name="Rosenweg" lane="-5060708#8_1" startPos="11.51" endPos="26.51" friendlyPos="true" lines="N62"/>
    <busStop id="-4922203176" name="Friedrich-Wolf-Straße" lane="-94517926#5_1" startPos="222.97" endPos="237.97" friendlyPos="true" lines="N62"/>
    <busStop id="-4922203178" name="Betonwerk" lane="-5060708#3_1" startPos="37.88" endPos="52.88" friendlyPos="true" lines="N62"/>
    <busStop id="-766875150" name="Marktplatz Adlershof" lane="-179699939#0_0" startPos="246.96" endPos="271.96" friendlyPos="true">
        <access lane="-149611534#0_0" pos="217.35" length="123.24" friendlyPos="1"/>
        <access lane="-23788323_0" pos="6.93" length="41.98" friendlyPos="1"/>
        <access lane="140964924_0" pos="206.49" length="147.37" friendlyPos="1"/>
        <access lane="149611534#0_0" pos="0.00" length="118.47" friendlyPos="1"/>
        <access lane="23788323_0" pos="214.12" length="29.38" friendlyPos="1"/>
    </busStop>
    <busStop id="-851572693" name="Wegedornstraße/Semmelweisstraße" lane="-46150481#0_1" startPos="12.23" endPos="27.23" friendlyPos="true" lines="162 164"/>
    <busStop id="-942861696" name="Altglienicker Brücke" lane="-144909690#1_1" startPos="12.41" endPos="27.41" friendlyPos="true" lines="163 260"/>
    <busStop id="-94487924" name="Altglienicke Kirche" lane="-144909690#0_1" startPos="109.53" endPos="124.53" friendlyPos="true" lines="163 260"/>
    <busStop id="-945142208" name="Hans-Schmidt-Straße" lane="-318210378#5_1" startPos="7.39" endPos="22.39" friendlyPos="true" lines="163"/>
    <busStop id="1383533459" name="Abtstraße" lane="24152326#0_1" startPos="60.22" endPos="75.22" friendlyPos="true" lines="164 162"/>
    <busStop id="1383533461" name="Adlergestell/Glienicker Weg" lane="318210360#0_1" startPos="60.37" endPos="75.37" friendlyPos="true" lines="163 N68"/>
    <busStop id="1383533462" name="Adlergestell/Glienicker Weg" lane="204721579#1_1" startPos="90.15" endPos="105.15" friendlyPos="true" lines="163 N68"/>
    <busStop id="1383533471" name="Betonwerk" lane="461514289#0_0" startPos="664.20" endPos="689.20" friendlyPos="true" lines="68">
        <access lane="-31952783_0" pos="76.52" length="67.79" friendlyPos="1"/>
        <access lane="-5060708#3_0" pos="37.90" length="5.39" friendlyPos="1"/>
        <access lane="-747191447#1_0" pos="4.59" length="66.44" friendlyPos="1"/>
        <access lane="31952783_0" pos="0.00" length="63.16" friendlyPos="1"/>
        <access lane="5060708#3_0" pos="40.35" length="8.71" friendlyPos="1"/>
    </busStop>
    <busStop id="1383533479" name="Betonwerk" lane="461514288#1_0" startPos="63.86" endPos="88.86" friendlyPos="true" lines="68">
        <access lane="-31952783_0" pos="76.52" length="21.85" friendlyPos="1"/>
        <access lane="-5060708#3_0" pos="6.76" length="9.42" friendlyPos="1"/>
        <access lane="31952783_0" pos="0.00" length="17.79" friendlyPos="1"/>
        <access lane="5060708#3_0" pos="71.49" length="4.68" friendlyPos="1"/>
        <access lane="5060708#4_0" pos="0.00" length="24.73" friendlyPos="1"/>
    </busStop>
    <busStop id="1383533492" name="Büchnerweg" lane="23913524#2_1" startPos="38.06" endPos="53.06" friendlyPos="true" lines="164 162"/>
    <busStop id="1383533525" name="Friedrich-Wolf-Straße" lane="461452916_0" startPos="792.10" endPos="817.10" friendlyPos="true" lines="68">
        <access lane="-604587891#1_0" pos="24.98" length="81.23" friendlyPos="1"/>
        <access lane="-94517926#5_0" pos="230.40" length="5.16" friendlyPos="1"/>
        <access lane="604587889#1_0" pos="22.23" length="83.44" friendlyPos="1"/>
        <access lane="604587891#1_0" pos="10.13" length="87.85" friendlyPos="1"/>
        <access lane="94517926#5_0" pos="62.56" length="8.94" friendlyPos="1"/>
    </busStop>
    <busStop id="1383533575" name="Radickestraße/Anna-Seghers-Straße" lane="149611526#0_1" startPos="23.98" endPos="38.98" friendlyPos="true" lines="164 162"/>
    <busStop id="1383533577" name="Radickestraße/Nipkowstraße" lane="137534616#0_1" startPos="34.88" endPos="49.88" friendlyPos="true" lines="164 162"/>
    <busStop id="1383533580" name="Regattastraße/Schule" lane="461452920_0" startPos="893.66" endPos="918.66" friendlyPos="true" lines="68"/>
    <busStop id="1383533590" name="Rosenweg" lane="461514289#0_0" startPos="208.70" endPos="233.70" friendlyPos="true" lines="68">
        <access lane="-5060708#8_0" pos="16.23" length="5.24" friendlyPos="1"/>
        <access lane="-5060708#9_0" pos="22.19" length="32.24" friendlyPos="1"/>
        <access lane="46771553#0_0" pos="96.56" length="29.72" friendlyPos="1"/>
        <access lane="5060708#8_0" pos="21.79" length="8.86" friendlyPos="1"/>
        <access lane="5060708#9_0" pos="0.00" length="32.89" friendlyPos="1"/>
    </busStop>
    <busStop id="1383533593" name="Rosenweg" lane="461514288#1_0" startPos="516.32" endPos="541.32" friendlyPos="true" lines="68">
        <access lane="-5060708#8_0" pos="0.00" length="20.74" friendlyPos="1"/>
        <access lane="-5060708#9_0" pos="14.71" length="9.03" friendlyPos="1"/>
        <access lane="46771553#0_0" pos="96.56" length="20.26" friendlyPos="1"/>
        <access lane="5060708#8_0" pos="38.02" length="19.23" friendlyPos="1"/>
        <access lane="5060708#9_0" pos="7.48" length="5.07" friendlyPos="1"/>
    </busStop>
    <busStop id="1383533597" name="S Adlershof" lane="152839426_1" startPos="0.00" endPos="7.50" friendlyPos="true" lines="N60 N65 N68"/>
    <busStop id="1560223236" name="Rudower Chaussee/Wegedornstraße" lane="143308587#1_1" startPos="32.07" endPos="47.07" friendlyPos="true" lines="160 162 N60 164"/>
    <busStop id="1568240825" name="Altglienicke Kirche" lane="81096611#0_1" startPos="34.02" endPos="49.02" friendlyPos="true" lines="160 N60"/>
    <busStop id="1656195133" name="S Adlershof" lane="206889086#1_1" startPos="21.84" endPos="29.35" friendlyPos="true" lines="162 163 N60 164"/>
    <busStop id="1704693343" name="Karl-Ziegler-Straße" lane="158236729#0_0" startPos="0.00" endPos="9.73" friendlyPos="true" lines="61 63">
        <access lane="142575685#0_0" pos="57.40" length="9.48" friendlyPos="1"/>
        <access lane="142575686#3_0" pos="7.37" length="13.10" friendlyPos="1"/>
        <access lane="569694705#0_0" pos="0.20" length="16.12" friendlyPos="1"/>
        <access lane="569694705#2_0" pos="0.00" length="14.79" friendlyPos="1"/>
        <access lane="840221735#5_0" pos="51.89" length="13.26" friendlyPos="1"/>
    </busStop>
    <busStop id="1704693369" name="Karl-Ziegler-Straße" lane="220198810#6_0" startPos="30.08" endPos="42.57" friendlyPos="true" lines="61 63">
        <access lane="142575685#0_0" pos="25.02" length="13.37" friendlyPos="1"/>
        <access lane="142575686#4_0" pos="8.41" length="8.41" friendlyPos="1"/>
        <access lane="142575686#5_0" pos="0.00" length="11.84" friendlyPos="1"/>
        <access lane="397678504#3_0" pos="0.20" length="11.81" friendlyPos="1"/>
        <access lane="840221739#16_0" pos="8.03" length="13.61" friendlyPos="1"/>
    </busStop>
    <busStop id="1704693381" name="Magnusstraße" lane="220198810#0_0" startPos="6.09" endPos="31.09" friendlyPos="true" lines="61 63">
        <access lane="143308542#4_0" pos="60.49" length="23.98" friendlyPos="1"/>
        <access lane="143308542#6_0" pos="3.21" length="19.64" friendlyPos="1"/>
        <access lane="143308546#3_0" pos="52.12" length="20.40" friendlyPos="1"/>
        <access lane="143308546#4_0" pos="0.00" length="20.97" friendlyPos="1"/>
        <access lane="81096589#0_0" pos="4.38" length="10.05" friendlyPos="1"/>
    </busStop>
    <busStop id="1704693389" name="Magnusstraße" lane="220198808#0_0" startPos="15.48" endPos="37.99" friendlyPos="true" lines="61 63">
        <access lane="143308542#6_0" pos="49.99" length="15.58" friendlyPos="1"/>
        <access lane="143308542#7_0" pos="0.00" length="23.82" friendlyPos="1"/>
        <access lane="143308546#3_0" pos="5.74" length="24.46" friendlyPos="1"/>
        <access lane="81096580#0_0" pos="0.18" length="17.68" friendlyPos="1"/>
        <access lane="81096580#3_0" pos="0.00" length="15.40" friendlyPos="1"/>
    </busStop>
    <busStop id="1704693444" name="S Adlershof" lane="179699938#3_0" startPos="33.49" endPos="49.70" friendlyPos="true" lines="61 63">
        <access lane="220194458#3_0" pos="4.18" length="8.60" friendlyPos="1"/>
        <access lane="540221744_0" pos="0.43" length="10.75" friendlyPos="1"/>
        <access lane="540221756_0" pos="0.59" length="7.78" friendlyPos="1"/>
        <access lane="82710639#1_0" pos="0.20" length="10.66" friendlyPos="1"/>
        <access lane="82710639#2_0" pos="0.00" length="10.21" friendlyPos="1"/>
    </busStop>
    <busStop id="1704693451" name="Walther-Nernst-Straße" lane="206889079#9_0" startPos="34.18" endPos="59.18" friendlyPos="true" lines="61 63">
        <access lane="142575735#0_0" pos="6.74" length="11.39" friendlyPos="1"/>
        <access lane="143308542#17_0" pos="5.05" length="24.85" friendlyPos="1"/>
        <access lane="670062907#2_0" pos="12.57" length="24.30" friendlyPos="1"/>
        <access lane="670062907#3_0" pos="4.89" length="19.13" friendlyPos="1"/>
        <access lane="670062907#4_0" pos="0.00" length="24.81" friendlyPos="1"/>
    </busStop>
    <busStop id="1704693457" name="Walther-Nernst-Straße" lane="220198808#3_0" startPos="94.72" endPos="114.68" friendlyPos="true" lines="61 63">
        <access lane="143308542#18_0" pos="18.76" length="20.26" friendlyPos="1"/>
        <access lane="81096606#0_0" pos="0.20" length="12.70" friendlyPos="1"/>
        <access lane="81096606#2_0" pos="0.20" length="13.90" friendlyPos="1"/>
        <access lane="81096606#3_0" pos="0.20" length="11.57" friendlyPos="1"/>
        <access lane="81096606#4_0" pos="0.00" length="11.32" friendlyPos="1"/>
    </busStop>
    <busStop id="1756300980" name="S Adlershof" lane="20553068#3_1" startPos="2.87" endPos="10.37" friendlyPos="true"/>
    <busStop id="1862990707" name="Otto-Franke-Straße" lane="153021549#1_1" startPos="31.80" endPos="46.80" friendlyPos="true" lines="163 N68"/>
    <busStop id="2050022025" name="Hermann-Dorner-Allee" lane="70130339#1_1" startPos="76.75" endPos="91.75" friendlyPos="true" lines="163"/>
    <busStop id="2050022029" name="Hermann-Dorner-Allee" lane="231626692#1_1" startPos="168.37" endPos="183.37" friendlyPos="true" lines="163"/>
    <busStop id="2391105467" name="S Adlershof/Franz-Ehrlich-Straße" lane="318210373#0_1" startPos="16.01" endPos="31.01" friendlyPos="true"/>
    <busStop id="297194207" name="Glienicker Weg/Nipkowstraße" lane="113575152#13_1" startPos="46.94" endPos="61.94" friendlyPos="true" lines="164 162"/>
    <busStop id="301263813" name="Altglienicke Kirche" lane="144909690#0_1" startPos="25.50" endPos="40.50" friendlyPos="true" lines="163 260"/>
    <busStop id="301292770" name="Wegedornstraße/Semmelweisstraße" lane="169076556#3_1" startPos="6.01" endPos="21.01" friendlyPos="true" lines="160 N60"/>
    <busStop id="301331956" name="Magnusstraße" lane="143308546#3_1" startPos="39.41" endPos="54.41" friendlyPos="true" lines="162 N60 164"/>
    <busStop id="30499115" name="S Adlershof" lane="4782367_0" startPos="0.00" endPos="182.81" friendlyPos="true" lines="S45 S8 S9 S46 S85">
        <access lane="540388566_0" pos="0.10" length="39.37" friendlyPos="1"/>
        <access lane="540388567#0_0" pos="0.00" length="34.25" friendlyPos="1"/>
        <access lane="540388567#1_0" pos="0.00" length="37.11" friendlyPos="1"/>
        <access lane="72230304#1_0" pos="81.62" length="42.65" friendlyPos="1"/>
        <access lane="85088365_0" pos="10.28" length="39.96" friendlyPos="1"/>
    </busStop>
    <busStop id="306982602" name="Magnusstraße" lane="143308542#6_1" startPos="14.23" endPos="29.23" friendlyPos="true" lines="162 164 N60"/>
    <busStop id="3508654675" name="S Adlershof" lane="22917995_0" startPos="0.00" endPos="55.51" friendlyPos="true" lines="S45 S8 S9 S46 S85">
        <access lane="206889086#1_0" pos="9.18" length="10.31" friendlyPos="1"/>
        <access lane="218797686#0_0" pos="2.35" length="15.88" friendlyPos="1"/>
        <access lane="540221753_0" pos="0.26" length="15.77" friendlyPos="1"/>
        <access lane="540388579#1_0" pos="9.35" length="10.19" friendlyPos="1"/>
        <access lane="806903753_0" pos="3.92" length="16.36" friendlyPos="1"/>
    </busStop>
    <busStop id="3812676495" name="Otto-Franke-Straße" lane="153021553#1_1" startPos="32.30" endPos="47.30" friendlyPos="true" lines="163 N68"/>
    <busStop id="3834046602" name="Glienicker Weg/Nipkowstraße" lane="190928927#2_1" startPos="22.83" endPos="37.83" friendlyPos="true" lines="164 162"/>
    <busStop id="3834046603" name="Zinsgutstraße" lane="113575152#2_1" startPos="10.57" endPos="25.57" friendlyPos="true" lines="164 162"/>
    <busStop id="3834046604" name="Zinsgutstraße" lane="190928927#13_1" startPos="0.00" endPos="13.97" friendlyPos="true" lines="164 162"/>
    <busStop id="385200819" name="Albert-Einstein-Straße" lane="314415495#15_1" startPos="3.95" endPos="18.95" friendlyPos="true" lines="260"/>
    <busStop id="3893875078" name="Otto-Franke-Straße" lane="204721578#0_1" startPos="44.07" endPos="59.07" friendlyPos="true"/>
    <busStop id="4457500796" name="S Adlershof" lane="43661122_0" startPos="108.91" endPos="48.44" friendlyPos="true">
        <access lane="-230625607#0_0" pos="0.00" length="10.04" friendlyPos="1"/>
        <access lane="-230625607#1_0" pos="41.50" length="17.84" friendlyPos="1"/>
        <access lane="-230625607#2_0" pos="0.00" length="14.19" friendlyPos="1"/>
        <access lane="230625607#0_0" pos="110.75" length="13.65" friendlyPos="1"/>
        <access lane="230625607#2_0" pos="45.99" length="10.76" friendlyPos="1"/>
    </busStop>
    <busStop id="464396487" name="Rudower Chaussee/Wegedornstraße" lane="143308542#1_1" startPos="29.43" endPos="44.43" friendlyPos="true" lines="162 164 N60"/>
    <busStop id="464396566" name="Walther-Nernst-Straße" lane="670062907#2_1" startPos="1.05" endPos="16.05" friendlyPos="true" lines="162 N60 164"/>
    <busStop id="464396589" name="Walther-Nernst-Straße" lane="143308542#18_1" startPos="1.10" endPos="16.10" friendlyPos="true" lines="162 164 N60"/>
    <busStop id="4922203170" name="Rosenweg" lane="5060708#9_1" startPos="2.32" endPos="17.32" friendlyPos="true" lines="N62"/>
    <busStop id="4922203177" name="Friedrich-Wolf-Straße" lane="94517926#5_1" startPos="100.17" endPos="115.17" friendlyPos="true" lines="N62"/>
    <busStop id="4922203179" name="Betonwerk" lane="5060708#3_1" startPos="65.17" endPos="80.17" friendlyPos="true" lines="N62"/>
    <busStop id="5315085711" name="S Adlershof" lane="806903753_1" startPos="0.00" endPos="4.19" friendlyPos="true" lines="162 163 164 N60"/>
    <busStop id="5730442664" name="S Adlershof" lane="80763814#2_0" startPos="17.02" endPos="42.02" friendlyPos="true">
        <access lane="-230625607#0_0" pos="0.00" length="14.05" friendlyPos="1"/>
        <access lane="-230625607#1_0" pos="41.50" length="21.93" friendlyPos="1"/>
        <access lane="-230625607#2_0" pos="0.00" length="17.52" friendlyPos="1"/>
        <access lane="230625607#0_0" pos="110.75" length="18.06" friendlyPos="1"/>
        <access lane="230625607#2_0" pos="45.99" length="13.34" friendlyPos="1"/>
    </busStop>
    <busStop id="583899039" name="S Adlershof" lane="218797686#0_1" startPos="0.00" endPos="12.50" friendlyPos="true" lines="61 63"/>
    <busStop id="664208807" name="Wilhelm-Ostwald-Straße" lane="314415495#6_1" startPos="42.35" endPos="57.35" friendlyPos="true" lines="260"/>
    <busStop id="664609166" name="Hafenstraße" lane="145586617#10_1" startPos="49.88" endPos="64.88" friendlyPos="true"/>
    <busStop id="664609167" name="Hafenstraße" lane="145586617#10_1" startPos="38.16" endPos="53.16" friendlyPos="true"/>
    <busStop id="664609173" name="August-Froehlich-Straße" lane="145586617#0_1" startPos="41.30" endPos="56.30" friendlyPos="true"/>
    <busStop id="664609175" name="August-Froehlich-Straße" lane="145586617#1_1" startPos="0.00" endPos="10.70" friendlyPos="true"/>
    <busStop id="664609197" name="Massantebrücke" lane="145586617#11_1" startPos="52.61" endPos="67.61" friendlyPos="true"/>
    <busStop id="664609198" name="Massantebrücke" lane="145586617#11_1" startPos="82.31" endPos="94.01" friendlyPos="true"/>
    <busStop id="664609199" name="Kanalstraße 38-41" lane="145586617#10_1" startPos="806.49" endPos="821.49" friendlyPos="true"/>
    <busStop id="664609200" name="Kanalstraße 38-41" lane="145586617#10_1" startPos="728.51" endPos="743.51" friendlyPos="true"/>
    <busStop id="664609202" name="Mistelweg" lane="145586617#10_1" startPos="322.88" endPos="337.88" friendlyPos="true"/>
    <busStop id="664609203" name="Mistelweg" lane="145586617#10_1" startPos="352.87" endPos="367.87" friendlyPos="true"/>
    <busStop id="667031675" name="Regattastraße/Schule" lane="461452916_0" startPos="300.82" endPos="325.82" friendlyPos="true" lines="68"/>
    <busStop id="671564316" name="Rudower Chaussee/Wegedornstraße" lane="143308532#2_1" startPos="0.00" endPos="13.45" friendlyPos="true" lines="160"/>
    <busStop id="766875150" name="Marktplatz Adlershof" lane="179699939#0_0" startPos="165.42" endPos="190.42" friendlyPos="true">
        <access lane="-149611534#0_0" pos="217.35" length="123.24" friendlyPos="1"/>
        <access lane="-23788323_0" pos="6.93" length="41.98" friendlyPos="1"/>
        <access lane="140964924_0" pos="206.49" length="147.37" friendlyPos="1"/>
        <access lane="149611534#0_0" pos="0.00" length="118.47" friendlyPos="1"/>
        <access lane="23788323_0" pos="214.12" length="29.38" friendlyPos="1"/>
    </busStop>
    <busStop id="79408448" name="Friedrich-Wolf-Straße" lane="461452920_0" startPos="421.34" endPos="446.34" friendlyPos="true" lines="68">
        <access lane="-604587891#1_0" pos="24.98" length="126.84" friendlyPos="1"/>
        <access lane="-94517926#5_0" pos="191.95" length="8.51" friendlyPos="1"/>
        <access lane="19211030#0_0" pos="214.71" length="111.69" friendlyPos="1"/>
        <access lane="19211030#1_0" pos="0.00" length="117.23" friendlyPos="1"/>
        <access lane="94517926#5_0" pos="100.89" length="5.59" friendlyPos="1"/>
    </busStop>
    <busStop id="837696418" name="James-Franck-Straße" lane="143308532#8_1" startPos="27.03" endPos="42.03" friendlyPos="true" lines="160"/>
    <busStop id="837696524" name="James-Franck-Straße" lane="46039050#4_1" startPos="27.32" endPos="42.32" friendlyPos="true" lines="160"/>
    <busStop id="837696912" name="Akeleiweg" lane="141968853#1_1" startPos="9.35" endPos="24.35" friendlyPos="true" lines="160"/>
    <busStop id="837697182" name="Johannes-Sasse-Ring" lane="141968799_1" startPos="352.37" endPos="367.37" friendlyPos="true" lines="160"/>
    <busStop id="851572829" name="Korkedamm" lane="81096611#1_1" startPos="76.35" endPos="91.35" friendlyPos="true" lines="160 N60"/>
    <busStop id="852932398" name="Wegedornstraße/Semmelweisstraße" lane="46150481#0_1" startPos="34.01" endPos="49.01" friendlyPos="true" lines="160 162 N60 164"/>
    <busStop id="94487938" name="Altglienicker Brücke" lane="144909690#2_1" startPos="36.54" endPos="51.54" friendlyPos="true" lines="163 260"/>
    <busStop id="945142098" name="Hans-Schmidt-Straße" lane="318210378#8_1" startPos="4.36" endPos="19.36" friendlyPos="true" lines="163"/>
    <busStop id="945142241" name="Am Studio/Köpenicker Straße" lane="314415495#1_1" startPos="28.80" endPos="43.80" friendlyPos="true" lines="260"/>
</additional>
