<?xml version="1.0" encoding="UTF-8"?>

<!-- generated on 2023-04-24 08:42:00 by Eclipse SUMO sumo Version v1_16_0+2324-b138d4deaa7
-->

<configuration xmlns:xsi="http://www.w3.org/2001/XMLSchema-instance" xsi:noNamespaceSchemaLocation="http://sumo.dlr.de/xsd/sumoConfiguration.xsd">

    <input>
        <net-file value="osm.net.xml.gz"/>
    </input>

    <processing>
        <lateral-resolution value="0.8"/>
        <tls.actuated.jam-threshold value="30"/>
    </processing>

</configuration>
