<?xml version="1.0" encoding="UTF-8"?>

<!-- generated on 2022-04-24 22:41:39 by Eclipse SUMO netedit Version v1_12_0+2249-58f10332714
-->

<routes xmlns:xsi="http://www.w3.org/2001/XMLSchema-instance" xsi:noNamespaceSchemaLocation="http://sumo.dlr.de/xsd/routes_file.xsd">
    <!-- Vehicles, persons and containers (sorted by depart) -->
    <flow id="f_0" begin="0.00" departLane="random" departSpeed="avg" color="blue" from="22721677#0" to="72230301#0" end="3600.00" period="exp(0.7)"/>
</routes>
