<?xml version="1.0" encoding="UTF-8"?>

<!-- generated on 2023-04-25 15:55:19 by Eclipse SUMO netedit Version 1.17.0
-->

<routes xmlns:xsi="http://www.w3.org/2001/XMLSchema-instance" xsi:noNamespaceSchemaLocation="http://sumo.dlr.de/xsd/routes_file.xsd">
    <!-- Vehicles, persons and containers (sorted by depart) -->
    <personFlow id="pf_0" begin="0.00" end="1000.00" period="exp(0.50)">
        <personTrip from="152839448#0" to="128643746#1" modes="bicycle" lines="ANY"/>
        <stop edge="128643746#1" endPos="27.42" until="28800.00" actType="SUMO2023"/>
        <personTrip to="52036180#5" modes="bicycle" lines="ANY"/>
    </personFlow>
</routes>
