<?xml version="1.0" encoding="UTF-8"?>

<!-- generated on Thu Oct  8 10:58:46 2020 by Eclipse SUMO duarouter Version v1_7_0+0544-036d5ed53f
<configuration xmlns:xsi="http://www.w3.org/2001/XMLSchema-instance" xsi:noNamespaceSchemaLocation="http://sumo.dlr.de/xsd/duarouterConfiguration.xsd">

    <input>
        <net-file value="net.net.xml"/>
        <additional-files value="connected_stops.add.xml"/>
        <route-files value="persontrips.xml"/>
    </input>

    <output>
        <output-file value="persons_taxi_anywhere.rou.xml"/>
        <alternatives-output value="persons_taxi_anywhere.rou.alt.xml"/>
    </output>

    <processing>
        <persontrip.transfer.taxi-walk value="allJunctions"/>
        <persontrip.transfer.walk-taxi value="allJunctions"/>
    </processing>

    <report>
        <ignore-errors value="true"/>
    </report>

</configuration>
-->

<routes xmlns:xsi="http://www.w3.org/2001/XMLSchema-instance" xsi:noNamespaceSchemaLocation="http://sumo.dlr.de/xsd/routes_file.xsd">
    <person id="0" depart="0.00">
        <ride from="314415495#9" to="-138624477#3" lines="taxi"/>
        <walk edges="-138624477#2"/>
    </person>
    <person id="1" depart="1.00">
        <walk edges="-578659362 -142598710#1 518680733#0 518680733#1 -142575704#2"/>
        <ride from="-142575704#2" to="38568630#4" lines="taxi"/>
        <walk edges="-38568630#4"/>
    </person>
    <person id="2" depart="2.00">
        <walk edges="53021669 -40636828#1 31100755#1 -31100755#2 -31100755#3 -31100755#4 142575677#2"/>
        <ride from="142575677#2" to="135777010#16" lines="taxi"/>
        <walk edges="38569946#2"/>
    </person>
    <person id="3" depart="3.00">
        <walk edges="81096606#2 81096606#3 81096606#4 143308542#19"/>
        <ride from="143308542#19" to="-9859700#5" lines="taxi"/>
        <walk edges="-151237874#0"/>
    </person>
    <person id="4" depart="4.00">
        <ride from="142575679#6" to="-142575655#7" lines="taxi"/>
        <walk edges="-142575655#6"/>
    </person>
    <person id="5" depart="5.00">
        <ride from="-375685718#0" to="-166142951#1" lines="taxi"/>
        <walk edges="166142951#1"/>
    </person>
    <person id="6" depart="6.00">
        <ride from="-140964910#2" to="318210373#0" lines="taxi"/>
        <walk edges="-318210373#0"/>
    </person>
    <person id="7" depart="7.00">
        <walk edges="320741898#2 -320741897#0 -143482755#2 -143482755#1 143482755#0 314415495#4"/>
        <ride from="314415495#4" to="22928749#1" lines="taxi"/>
        <walk edges="22928749#2"/>
    </person>
    <person id="8" depart="8.00">
        <ride from="-38159999#8" to="142575659#1" lines="taxi"/>
        <walk edges="25944601#0"/>
    </person>
    <person id="9" depart="9.00">
        <walk edges="586124047 138624421#30"/>
        <ride from="138624421#30" to="318210366" lines="taxi"/>
        <walk edges="-116343628#3"/>
    </person>
    <person id="10" depart="10.00">
        <walk edges="586124015 -138624469#7"/>
        <ride from="-138624469#7" to="190928927#4" lines="taxi"/>
        <walk edges="-27087620#4 408709166#7 -408709166#6 408709166#5 -408709166#4 408709166#3"/>
    </person>
    <person id="11" depart="11.00">
        <walk edges="-821789008 22956997#1"/>
        <ride from="22956997#1" to="138624421#17" lines="taxi"/>
        <walk edges="-24791997#1"/>
    </person>
    <person id="12" depart="12.00">
        <walk edges="841976395#1 -841976395#0 26991766#3"/>
        <ride from="26991766#3" to="142575688#12" lines="taxi"/>
        <walk edges="-81096582#2 -81096582#1 -81096582#0"/>
    </person>
    <person id="13" depart="13.00">
        <walk edges="-152470902 -375685718#1"/>
        <ride from="-375685718#1" to="71028774#1" lines="taxi"/>
        <walk edges="70133621#0 -156071615#3"/>
    </person>
    <person id="14" depart="14.00">
        <walk edges="677923383#1 579026183#1 143308546#2 81096580#0 81096580#3 143308542#6 143308542#4 128643753#1 32530656#0 32530656#1 26816413#0 -26816413#1 -26816590#0 26816590#1"/>
    </person>
    <person id="15" depart="15.00">
        <walk edges="586124030 -138624421#12"/>
        <ride from="-138624421#12" to="578659321#0" lines="taxi"/>
        <walk edges="52081116#2"/>
    </person>
    <person id="16" depart="16.00">
        <walk edges="213883652 213883657 213883654 -245105014#0 -319580807 206579064#0"/>
        <ride from="206579064#0" to="-38159999#9" lines="taxi"/>
        <walk edges="843190013#5"/>
    </person>
    <person id="17" depart="17.00">
        <ride from="118262353#2" to="142575693#3" lines="taxi"/>
        <walk edges="239335492#2 239335492#0"/>
    </person>
    <person id="18" depart="18.00">
        <walk edges="630078134#0 578659327#1 578659327#0 52081116#5"/>
        <ride from="52081116#5" to="283317443#4" lines="taxi"/>
        <walk edges="283317443#6"/>
    </person>
    <person id="19" depart="19.00">
        <walk edges="70255226#1 -133858189 -133858466 142575659#0 71028774#1 71028774#0 71028777#4 71028777#2 71028777#1 -558307102#0 -558307102#1 695812741 24733698#1"/>
    </person>
    <person id="20" depart="20.00">
        <walk edges="41324822#1 41321357#1 -41321354#0 41321354#1 670062919#1"/>
        <ride from="670062919#1" to="-142575701#5" lines="taxi"/>
        <walk edges="-142575701#4"/>
    </person>
    <person id="21" depart="21.00">
        <walk edges="-38574189#6 38574189#7 -360099571#1 38568648 138624469#9"/>
        <ride from="138624469#9" to="142575704#17" lines="taxi"/>
        <walk edges="-31344738#3 -31344738#2 -31344738#1 583475562 -583475562"/>
    </person>
    <person id="22" depart="22.00">
        <walk edges="-148803140 -35554225#2"/>
        <ride from="-35554225#2" to="-22956997#6" lines="taxi"/>
        <walk edges="-40570987"/>
    </person>
    <person id="23" depart="23.00">
        <walk edges="-175355420#0 -175355420#1 187122892#2"/>
        <ride from="187122892#2" to="-24038573#1" lines="taxi"/>
        <walk edges="-579048918"/>
    </person>
    <person id="24" depart="24.00">
        <ride from="313964778#1" to="147859763#2" lines="taxi"/>
        <walk edges="114024961#1 114024961#0 114024903#2"/>
    </person>
    <person id="25" depart="25.00">
        <walk edges="114285344#2 114355960#1 114355960#0 -137483015#2"/>
        <ride from="-137483015#2" to="318210394#0" lines="taxi"/>
        <walk edges="-334308447#0"/>
    </person>
    <person id="26" depart="26.00">
        <walk edges="-53530096 187122892#10"/>
        <ride from="187122892#10" to="52081075#8" lines="taxi"/>
        <walk edges="840221731"/>
    </person>
    <person id="27" depart="27.00">
        <walk edges="320153867 -40089662#1 -40089662#0 -53529919#2 53529919#0 204721579#2"/>
        <ride from="204721579#2" to="-26991766#14" lines="taxi"/>
        <walk edges="26991766#14"/>
    </person>
    <person id="28" depart="28.00">
        <walk edges="-26842370#0 -26842370#1 -691266821#0 691266821#1 -26842432#1 -26842432#0 -5060708#9"/>
        <ride from="-5060708#9" to="135777010#17" lines="taxi"/>
        <walk edges="52081093#1"/>
    </person>
    <person id="29" depart="29.00">
        <walk edges="-26444467#4 -26444467#5 -26444467#6 -26444467#7 -26444467#8 -26444467#9 -53529919#2 53529919#0 204721579#2"/>
        <ride from="204721579#2" to="143308546#11" lines="taxi"/>
        <walk edges="122666823 122666828#2"/>
    </person>
    <person id="30" depart="30.00">
        <walk edges="845194200 -334308447#4"/>
        <ride from="-334308447#4" to="283317444#2" lines="taxi"/>
        <walk edges="317451316#0"/>
    </person>
    <person id="31" depart="31.00">
        <walk edges="24038584#18 -24038584#17 -24038584#15 -24038584#14 -24038584#13 -24038584#12 -24038584#11 -24038609 152466402#14"/>
        <ride from="152466402#14" to="142575684#0" lines="taxi"/>
        <walk edges="397678494#0 397678494#1 397678499#1 397678495#0"/>
    </person>
    <person id="32" depart="32.00">
        <ride from="670062907#2" to="-152466402#12" lines="taxi"/>
        <walk edges="-579048881#0 579048881#1"/>
    </person>
    <person id="33" depart="33.00">
        <walk edges="-38574191 -135777010#0"/>
        <ride from="-135777010#0" to="-142575674#1" lines="taxi"/>
        <walk edges="-142575656#9"/>
    </person>
    <person id="34" depart="34.00">
        <walk edges="-708544917#1 -708544920#5 46150483#1"/>
        <ride from="46150483#1" to="38568632#1" lines="taxi"/>
        <walk edges="-38568632#3 -38568645 54039583#1 -54039583#0"/>
    </person>
    <person id="35" depart="35.00">
        <walk edges="-33691719#0 -59461375#0 -59461375#1 -59461375#2 -143308566#2"/>
        <ride from="-143308566#2" to="802021414#1" lines="taxi"/>
        <walk edges="840221738#5"/>
    </person>
    <person id="36" depart="36.00">
        <walk edges="747943674 141968810#1"/>
        <ride from="141968810#1" to="-142575659#1" lines="taxi"/>
        <walk edges="133858466 -133858189 -70255226#1 -70255226#0"/>
    </person>
    <person id="37" depart="37.00">
        <walk edges="328398944 -26843019#3 -26843019#4 142575656#14"/>
        <ride from="142575656#14" to="-138624421#30" lines="taxi"/>
        <walk edges="138624421#30"/>
    </person>
    <person id="38" depart="38.00">
        <walk edges="840221703#0 840221710#0 135777010#6"/>
        <ride from="135777010#6" to="143308546#9" lines="taxi"/>
        <walk edges="143308546#10"/>
    </person>
    <person id="39" depart="39.00">
        <walk edges="-53529476#0 -26444467#3 -26444467#4 -26444467#5 -26444467#6 -26444467#7 -26444467#8 -26444467#9 -53529919#2 53529919#0 204721579#2"/>
        <ride from="204721579#2" to="802021414#6" lines="taxi"/>
        <walk edges="-45875459#5"/>
    </person>
    <person id="40" depart="40.00">
        <walk edges="24149293 -22928749#2"/>
        <ride from="-22928749#2" to="-187122892#8" lines="taxi"/>
        <walk edges="26444467#0 -53529254#0 -53529255#7 -53529255#6"/>
    </person>
    <person id="41" depart="41.00">
        <walk edges="257131026 -318210369#0"/>
        <ride from="-318210369#0" to="-152447118#4" lines="taxi"/>
        <walk edges="821787243"/>
    </person>
    <person id="42" depart="42.00">
        <ride from="138624445#3" to="-38160000" lines="taxi"/>
        <walk edges="-38159999#10"/>
    </person>
    <person id="43" depart="43.00">
        <ride from="94517926#3" to="187122892#2" lines="taxi"/>
        <walk edges="175355420#2"/>
    </person>
    <person id="44" depart="44.00">
        <ride from="-152466402#18" to="-142575704#14" lines="taxi"/>
        <walk edges="-142575704#13"/>
    </person>
    <person id="45" depart="45.00">
        <ride from="-190083616#0" to="143308521#9" lines="taxi"/>
        <walk edges="-149670374#2 -149670374#1 30978404#0"/>
    </person>
    <person id="46" depart="46.00">
        <walk edges="579786647 113575152#6"/>
        <ride from="113575152#6" to="-142575679#8" lines="taxi"/>
        <walk edges="142575679#8"/>
    </person>
    <person id="47" depart="47.00">
        <ride from="-143308527#5" to="-314415495#8" lines="taxi"/>
        <walk edges="26991690 -125399002#1 -125399001#4 125399001#3"/>
    </person>
    <person id="48" depart="48.00">
        <walk edges="92914055#2 397678504#0 397678504#1 397678504#2 397678504#3 142575686#4"/>
        <ride from="142575686#4" to="20551905#6" lines="taxi"/>
        <walk edges="20551905#0"/>
    </person>
    <person id="49" depart="49.00">
        <walk edges="843190011#1 -841976395#0 26991766#3"/>
        <ride from="26991766#3" to="670062919#4" lines="taxi"/>
        <walk edges="-670062930#0 702305701#1"/>
    </person>
    <person id="50" depart="50.00">
        <ride from="-135777010#14" to="670062920" lines="taxi"/>
        <walk edges="-41320354#1 -41320354#0 -41320579#3 487193789#0"/>
    </person>
    <person id="51" depart="51.00">
        <ride from="38915290#2" to="206579064#1" lines="taxi"/>
        <walk edges="245105014#1 -245105014#0 -25944448 213883661"/>
    </person>
    <person id="52" depart="52.00">
        <walk edges="-53529919#2 53529919#0 204721579#2"/>
        <ride from="204721579#2" to="414563781" lines="taxi"/>
        <walk edges="318210355"/>
    </person>
    <person id="53" depart="53.00">
        <walk edges="-190928929#2 40191605#3"/>
        <ride from="40191605#3" to="142575701#0" lines="taxi"/>
        <walk edges="142575701#2"/>
    </person>
    <person id="54" depart="54.00">
        <ride from="143308523#4" to="-841345129#6" lines="taxi"/>
        <walk edges="841345129#5"/>
    </person>
    <person id="55" depart="55.00">
        <walk edges="747191447#2 747191447#1 5060708#2"/>
        <ride from="5060708#2" to="204721579#2" lines="taxi"/>
        <walk edges="53529919#0 -53529919#2 -26444467#9 -26444467#8 -26444467#7 -53529411#0"/>
    </person>
    <person id="56" depart="56.00">
        <walk edges="152709214#0 -169076556#1"/>
        <ride from="-169076556#1" to="22928744#1" lines="taxi"/>
        <walk edges="-278500217#2"/>
    </person>
    <person id="57" depart="57.00">
        <walk edges="840221700#3 840221700#4 38915289#1 38915289#0"/>
        <ride from="38915289#0" to="143308566#2" lines="taxi"/>
        <walk edges="-59461375#2 -71960638#1 71960707"/>
    </person>
    <person id="58" depart="58.00">
        <walk edges="-586124069 -138624421#1"/>
        <ride from="-138624421#1" to="-314415495#6" lines="taxi"/>
        <walk edges="314415495#6"/>
    </person>
    <person id="59" depart="59.00">
        <ride from="26991766#13" to="-24733698#0" lines="taxi"/>
        <walk edges="-24733697#0"/>
    </person>
    <person id="60" depart="60.00">
        <walk edges="568569666#1 568569666#0 -283317443#4"/>
        <ride from="-283317443#4" to="-81096611#3" lines="taxi"/>
        <walk edges="22758963"/>
    </person>
    <person id="61" depart="61.00">
        <walk edges="579202713 -24038584#11 -24038609 152466402#14"/>
        <ride from="152466402#14" to="20551905#2" lines="taxi"/>
        <walk edges="20551912#0"/>
    </person>
    <person id="62" depart="62.00">
        <walk edges="-114024903#1 114024961#0 114024961#1 147859763#3"/>
        <ride from="147859763#3" to="38915289#5" lines="taxi"/>
        <walk edges="-721625615#1 721625615#2 -721625615#2"/>
    </person>
    <person id="63" depart="63.00">
        <ride from="-138624445#1" to="8025704#0" lines="taxi"/>
        <walk edges="840221724#0"/>
    </person>
    <person id="64" depart="64.00">
        <walk edges="767962952 670062938#1 670062937 670062936#1 670062935 -670062913#1"/>
        <ride from="-670062913#1" to="52081116#6" lines="taxi"/>
        <walk edges="630078181#0 630078181#1 630078145 630078146#2"/>
    </person>
    <person id="65" depart="65.00">
        <walk edges="-679894150 70130297#1 -142575700#3"/>
        <ride from="-142575700#3" to="142575704#17" lines="taxi"/>
        <walk edges="-31344738#3 -31344738#2 -142598713"/>
    </person>
    <person id="66" depart="66.00">
        <walk edges="767962949 767962948#0 142575695#3"/>
        <ride from="142575695#3" to="142575655#7" lines="taxi"/>
        <walk edges="840221732#4 840221739#9"/>
    </person>
    <person id="67" depart="67.00">
        <walk edges="-151237848 9859700#3"/>
        <ride from="9859700#3" to="-149611524#1" lines="taxi"/>
        <walk edges="149611524#1"/>
    </person>
    <person id="68" depart="68.00">
        <walk edges="-143308673#2 -143308673#1 -143308673#0 169076556#1"/>
        <ride from="169076556#1" to="-143308493#4" lines="taxi"/>
        <walk edges="55939169#0"/>
    </person>
    <person id="69" depart="69.00">
        <ride from="578659321#0" to="23925122#1" lines="taxi"/>
        <walk edges="-23925122#1"/>
    </person>
    <person id="70" depart="70.00">
        <walk edges="143482779#1 143482769#0 314415495#5"/>
        <ride from="314415495#5" to="-149611511#3" lines="taxi"/>
        <walk edges="23919022#0"/>
    </person>
    <person id="71" depart="71.00">
        <walk edges="-53529476#1 -26444467#3 -26444467#4 -26444467#5 -26444467#6 -26444467#7 -26444467#8 -26444467#9 -53529919#2 53529919#0 204721579#2"/>
        <ride from="204721579#2" to="142575657#9" lines="taxi"/>
        <walk edges="721625613#0"/>
    </person>
    <person id="72" depart="72.00">
        <ride from="142575684#6" to="-347935096#3" lines="taxi"/>
        <walk edges="-347935096#2"/>
    </person>
    <person id="73" depart="73.00">
        <ride from="22758963" to="52081116#2" lines="taxi"/>
        <walk edges="52081116#3"/>
    </person>
    <person id="74" depart="74.00">
        <walk edges="-31952783 5060708#4 27087431 27087434#1 -27087434#2 -27087434#3 -27087434#5 -27087434#6 -691266822#6 -691266822#5"/>
    </person>
    <person id="75" depart="75.00">
        <walk edges="92914038#0 92914038#1 -52081075#8"/>
        <ride from="-52081075#8" to="-314415495#4" lines="taxi"/>
        <walk edges="143482755#0 -143482755#1 -143482755#2 -320741897#0 320741898#2"/>
    </person>
    <person id="76" depart="76.00">
        <ride from="142575704#4" to="8025704#0" lines="taxi"/>
        <walk edges="-180800504#5 180800504#4"/>
    </person>
    <person id="77" depart="77.00">
        <ride from="-22928674#5" to="-138624469#10" lines="taxi"/>
        <walk edges="-38568648"/>
    </person>
    <person id="78" depart="78.00">
        <ride from="-81096611#6" to="180239858#0" lines="taxi"/>
        <walk edges="245105014#1 -245105014#0 25944450#2"/>
    </person>
    <person id="79" depart="79.00">
        <ride from="-38915290#1" to="38159999#7" lines="taxi"/>
        <walk edges="-38159999#7"/>
    </person>
    <person id="81" depart="81.00">
        <walk edges="-38574191 -135777010#0"/>
        <ride from="-135777010#0" to="-22928688#0" lines="taxi"/>
        <walk edges="-836821656 836821655#0"/>
    </person>
    <person id="82" depart="82.00">
        <walk edges="70214888#1 -133858466 142575659#0"/>
        <ride from="142575659#0" to="-71960633#1" lines="taxi"/>
        <walk edges="-143308700#0 -143308700#1 143308700#2 -143308700#2"/>
    </person>
    <person id="83" depart="83.00">
        <walk edges="-40985814#0 -616846343#1 -616846343#0 -302943908#1 -302943908#2 -142575708#5 -142575708#4 -142598710#0 -142598710#1 518680733#0 518680733#1 -142575704#1 37958340#2 37958340#1 37958340#0"/>
    </person>
    <person id="84" depart="84.00">
        <ride from="-35554225#2" to="-152466402#18" lines="taxi"/>
        <walk edges="-24038609 -24038584#11"/>
    </person>
    <person id="85" depart="85.00">
        <walk edges="840221729#6 840221717#1 -52081075#4"/>
        <ride from="-52081075#4" to="152839466#1" lines="taxi"/>
        <walk edges="-24160814#0 24160814#1"/>
    </person>
    <person id="86" depart="86.00">
        <walk edges="143482758 314415495#9"/>
        <ride from="314415495#9" to="-347935096#6" lines="taxi"/>
        <walk edges="-24038605#0 -24038584#7 579613008#0 579613008#1"/>
    </person>
    <person id="87" depart="87.00">
        <walk edges="586124033 -138624421#17 -138624421#18 -138624421#20 -138624421#23 -138624421#24 -138624421#26 138624421#28 -138624421#30 138624421#31 -138624421#32 -180239877#0 -312192827"/>
    </person>
    <person id="88" depart="88.00">
        <walk edges="-156071615#4 -70133621#0 71028774#1 71028774#0 142575693#5 142575693#6"/>
    </person>
    <person id="89" depart="89.00">
        <ride from="142575686#1" to="-142575656#9" lines="taxi"/>
        <walk edges="143308646#0"/>
    </person>
    <person id="90" depart="90.00">
        <walk edges="52081093#1 135777010#18"/>
        <ride from="135777010#18" to="-52460499#3" lines="taxi"/>
        <walk edges="38568629"/>
    </person>
    <person id="91" depart="91.00">
        <walk edges="843832571#0 843544574#8 843190001#3 -142575656#6"/>
        <ride from="-142575656#6" to="-169076556#3" lines="taxi"/>
        <walk edges="-169076556#2"/>
    </person>
    <person id="92" depart="92.00">
        <ride from="138624469#9" to="-152447118#3" lines="taxi"/>
        <walk edges="-821787244"/>
    </person>
    <person id="93" depart="93.00">
        <walk edges="70255226#0 -133858189 -133858466 142575659#0"/>
        <ride from="142575659#0" to="26814968#1" lines="taxi"/>
        <walk edges="26815091#0 -26815091#3 -46771533#4 46771533#3 -46771533#2 -46771533#1 -46771533#0"/>
    </person>
    <person id="94" depart="94.00">
        <walk edges="-312192781#2 -312192781#1 312192781#0 -143308523#8"/>
        <ride from="-143308523#8" to="314415495#6" lines="taxi"/>
        <walk edges="-125399001#0 -125399001#1 142598712"/>
    </person>
    <person id="95" depart="95.00">
        <ride from="142575679#6" to="-152466402#5" lines="taxi"/>
        <walk edges="-579202699#0 -579202699#1"/>
    </person>
    <person id="96" depart="96.00">
        <walk edges="-46771551#2 689546056 26815091#0 26814968#1 26814968#0 408709148 579787986#1"/>
        <ride from="579787986#1" to="142575655#13" lines="taxi"/>
        <walk edges="840221713#8"/>
    </person>
    <person id="97" depart="97.00">
        <walk edges="142575725#5 -318210380#2"/>
        <ride from="-318210380#2" to="10735918#1" lines="taxi"/>
        <walk edges="336335410#1 670062930#2 702305702#2"/>
    </person>
    <person id="98" depart="98.00">
        <walk edges="23919022#3 153021549#4"/>
        <ride from="153021549#4" to="-142575710#7" lines="taxi"/>
        <walk edges="-142575710#1"/>
    </person>
    <person id="99" depart="99.00">
        <ride from="9859700#2" to="52081116#6" lines="taxi"/>
        <walk edges="630078181#0"/>
    </person>
    <person id="100" depart="100.00">
        <walk edges="843190003#1 -172013798#6"/>
        <ride from="-172013798#6" to="142575710#1" lines="taxi"/>
        <walk edges="840221718#3"/>
    </person>
    <person id="101" depart="101.00">
        <walk edges="681408360 -152447118#8"/>
        <ride from="-152447118#8" to="190928927#7" lines="taxi"/>
        <walk edges="-26814457#0 -26814457#1 -26814457#2"/>
    </person>
    <person id="102" depart="102.00">
        <walk edges="149611514#9 682679351 20552107#4 20552107#3 682679352 20551905#4 -98256382#0 -98256382#1 -98256382#2 -35554225#0"/>
    </person>
    <person id="103" depart="103.00">
        <ride from="138624469#10" to="-143308493#4" lines="taxi"/>
        <walk edges="-143308493#3"/>
    </person>
    <person id="104" depart="104.00">
        <walk edges="122666827 115466411#1 38507369#1"/>
        <ride from="38507369#1" to="-843190005#3" lines="taxi"/>
        <walk edges="843832577#0"/>
    </person>
    <person id="105" depart="105.00">
        <walk edges="-53529509#0 26444467#1 26444467#0 187122892#8"/>
        <ride from="187122892#8" to="-152466402#10" lines="taxi"/>
        <walk edges="579580100"/>
    </person>
    <person id="106" depart="106.00">
        <ride from="143308527#1" to="142575684#1" lines="taxi"/>
        <walk edges="142575684#4"/>
    </person>
    <person id="107" depart="107.00">
        <walk edges="841976395#2 -841976395#1 -841976395#0 26991766#3"/>
        <ride from="26991766#3" to="52081075#7" lines="taxi"/>
        <walk edges="92914038#2"/>
    </person>
    <person id="108" depart="108.00">
        <walk edges="24038584#1 24038584#0 -574527503"/>
        <ride from="-574527503" to="26814968#1" lines="taxi"/>
        <walk edges="26815091#0 -26815091#3 -26815091#4 26815091#5 691266822#0 -691266822#1 46771551#0"/>
    </person>
    <person id="109" depart="109.00">
        <walk edges="-24791993#6 840221713#3 840221714#5 840221714#4 840221714#3 -142575657#1"/>
        <ride from="-142575657#1" to="-138624445#4" lines="taxi"/>
        <walk edges="-586124061"/>
    </person>
    <person id="110" depart="110.00">
        <walk edges="843190003#0 172013798#6"/>
        <ride from="172013798#6" to="138624445#7" lines="taxi"/>
        <walk edges="24791997#0"/>
    </person>
    <person id="111" depart="111.00">
        <ride from="22928674#4" to="414563781" lines="taxi"/>
        <walk edges="329733354#1 540224357#0 540223976 140162607 540223981#0"/>
    </person>
    <person id="112" depart="112.00">
        <walk edges="-142575744#1 -142575744#2 -135777010#6"/>
        <ride from="-135777010#6" to="190083608#3" lines="taxi"/>
        <walk edges="257131023"/>
    </person>
    <person id="113" depart="113.00">
        <ride from="153021549#3" to="-142575704#3" lines="taxi"/>
        <walk edges="685966855 685966858 685966859"/>
    </person>
    <person id="114" depart="114.00">
        <walk edges="-257131026 -318210369#0"/>
        <ride from="-318210369#0" to="-38159999#6" lines="taxi"/>
        <walk edges="843190013#0 843189995#0 843189995#1"/>
    </person>
    <person id="115" depart="115.00">
        <ride from="-149611511#1" to="142575656#11" lines="taxi"/>
        <walk edges="231626696#0 231626696#1 -28888490#3 -28888490#2"/>
    </person>
    <person id="116" depart="116.00">
        <walk edges="26444467#1 26444467#0 187122892#8"/>
        <ride from="187122892#8" to="38568632#1" lines="taxi"/>
        <walk edges="-38568632#3 -38568645 54039583#1 38568643"/>
    </person>
    <person id="117" depart="117.00">
        <walk edges="-408709165#0 -408709165#1 -408709165#2 -408709165#3 408709166#7 -27087620#4 -27087620#5 113575152#11"/>
        <ride from="113575152#11" to="283317444#3" lines="taxi"/>
        <walk edges="-22928648#1"/>
    </person>
    <person id="118" depart="118.00">
        <walk edges="81096582#1 -81096582#2 142575688#12"/>
        <ride from="142575688#12" to="802021414#6" lines="taxi"/>
        <walk edges="-45875459#5 -45875459#4 -45875459#3"/>
    </person>
    <person id="119" depart="119.00">
        <walk edges="26004966#3 26004861#4 843544572#3 142575656#9"/>
        <ride from="142575656#9" to="180239858#0" lines="taxi"/>
        <walk edges="-183076346 283317448"/>
    </person>
    <person id="120" depart="120.00">
        <ride from="142575672#3" to="142575684#1" lines="taxi"/>
        <walk edges="257072322#2"/>
    </person>
    <person id="121" depart="121.00">
        <walk edges="190083625#0 206579061"/>
        <ride from="206579061" to="-142575655#7" lines="taxi"/>
        <walk edges="840221729#1"/>
    </person>
    <person id="122" depart="122.00">
        <walk edges="-320741898#0 -320741897#0 -143482755#2 -143482755#1 143482755#0 314415495#4"/>
        <ride from="314415495#4" to="-46150482" lines="taxi"/>
        <walk edges="46150482"/>
    </person>
    <person id="123" depart="123.00">
        <walk edges="-411478098 143482755#0 314415495#4"/>
        <ride from="314415495#4" to="-138624421#30" lines="taxi"/>
        <walk edges="138624421#30"/>
    </person>
    <person id="124" depart="124.00">
        <ride from="382647882" to="38568632#1" lines="taxi"/>
        <walk edges="-586124078"/>
    </person>
    <person id="125" depart="125.00">
        <walk edges="-708544920#1 708544920#0 -206579062#0"/>
        <ride from="-206579062#0" to="138624421#17" lines="taxi"/>
        <walk edges="24791997#1 54039583#12"/>
    </person>
    <person id="126" depart="126.00">
        <walk edges="-143482765#0 -142575726#2 -142575726#1 -142575726#0 314415495#12"/>
        <ride from="314415495#12" to="143308546#4" lines="taxi"/>
        <walk edges="81096589#0 143308542#6"/>
    </person>
    <person id="127" depart="127.00">
        <walk edges="98256382#2 140964910#3"/>
        <ride from="140964910#3" to="142575686#4" lines="taxi"/>
        <walk edges="397678504#3 397678504#2 397678504#1 397678504#0 92914055#2"/>
    </person>
    <person id="128" depart="128.00">
        <walk edges="-143482766#2 -143482766#1 -411478098 143482755#0 314415495#4"/>
        <ride from="314415495#4" to="153021549#3" lines="taxi"/>
        <walk edges="-354084466#0"/>
    </person>
    <person id="129" depart="129.00">
        <walk edges="-53529509#0 26444467#1 26444467#0 187122892#8"/>
        <ride from="187122892#8" to="142575700#2" lines="taxi"/>
        <walk edges="840221728#3"/>
    </person>
    <person id="130" depart="130.00">
        <walk edges="77761458 128643753#3 142575688#10"/>
        <ride from="142575688#10" to="408709154#0" lines="taxi"/>
        <walk edges="769408287#4 769408287#3"/>
    </person>
    <person id="131" depart="131.00">
        <walk edges="114285341#1 114285344#0 114285344#1 114355960#1 114355960#0 -137483015#2"/>
        <ride from="-137483015#2" to="48858191#1" lines="taxi"/>
        <walk edges="-257131028"/>
    </person>
    <person id="132" depart="132.00">
        <walk edges="630078162#4 630078162#5 630078162#6 630078162#7 630078162#8 630078161 -45875459#5 802021414#6"/>
        <ride from="802021414#6" to="670062923" lines="taxi"/>
        <walk edges="41321354#1"/>
    </person>
    <person id="133" depart="133.00">
        <walk edges="27087434#1 27087431 -5060708#5"/>
        <ride from="-5060708#5" to="-142575704#6" lines="taxi"/>
        <walk edges="843544573#0 843190001#4 843190001#5 843832586#1"/>
    </person>
    <person id="134" depart="134.00">
        <ride from="326994261#0" to="-314415495#7" lines="taxi"/>
        <walk edges="-125399001#0 -125399001#1"/>
    </person>
    <person id="135" depart="135.00">
        <walk edges="59461375#1 -59461375#2 -143308566#2"/>
        <ride from="-143308566#2" to="38568630#1" lines="taxi"/>
        <walk edges="-586124075"/>
    </person>
    <person id="136" depart="136.00">
        <ride from="35554225#1" to="-143308521#13" lines="taxi"/>
        <walk edges="840221734#0"/>
    </person>
    <person id="137" depart="137.00">
        <walk edges="-24038584#4 -24038584#3 -24038584#2 -24038584#1 24038584#0 -574527503"/>
        <ride from="-574527503" to="180239858#0" lines="taxi"/>
        <walk edges="-206579064#3"/>
    </person>
    <person id="138" depart="138.00">