<?xml version="1.0" encoding="UTF-8"?>

<!-- generated on Thu Oct  1 08:44:11 2020 by Eclipse SUMO duarouter Version v1_7_0+0383-307051f0d3
<configuration xmlns:xsi="http://www.w3.org/2001/XMLSchema-instance" xsi:noNamespaceSchemaLocation="http://sumo.dlr.de/xsd/duarouterConfiguration.xsd">

    <input>
        <net-file value="osm.net.xml"/>
        <route-files value="osm.passenger.trips.xml"/>
    </input>

    <output>
        <output-file value="osm.passenger.trips.xml.tmp"/>
        <write-trips value="true"/>
    </output>

    <time>
        <begin value="0"/>
        <end value="3600"/>
    </time>

    <report>
        <no-warnings value="true"/>
        <ignore-errors value="true"/>
        <no-step-log value="true"/>
    </report>

</configuration>
-->

<routes xmlns:xsi="http://www.w3.org/2001/XMLSchema-instance" xsi:noNamespaceSchemaLocation="http://sumo.dlr.de/xsd/routes_file.xsd">
    <vType id="veh_passenger" vClass="passenger"/>
    <trip id="veh0" type="veh_passenger" depart="0.00" departLane="best" from="172013798#4" to="-138624469#7"/>
    <trip id="veh1" type="veh_passenger" depart="1.44" departLane="best" from="-317451316#1" to="-22928688#0"/>
    <trip id="veh2" type="veh_passenger" depart="2.88" departLane="best" from="23925119#0" to="206579062#2"/>
    <trip id="veh3" type="veh_passenger" depart="4.33" departLane="best" from="46039050#0" to="-142575694#5"/>
    <trip id="veh4" type="veh_passenger" depart="5.77" departLane="best" departSpeed="max" from="138624477#0" to="-140964907"/>
    <trip id="veh5" type="veh_passenger" depart="7.21" departLane="best" departSpeed="max" from="-22928724" to="142575704#10"/>
    <trip id="veh6" type="veh_passenger" depart="8.65" departLane="best" departSpeed="max" from="-138624452#1" to="-190083610#0"/>
    <trip id="veh7" type="veh_passenger" depart="10.09" departLane="best" from="187122892#2" to="143308542#8"/>
    <trip id="veh8" type="veh_passenger" depart="11.54" departLane="best" departSpeed="max" from="-22928724" to="149611526#1"/>
    <trip id="veh9" type="veh_passenger" depart="12.98" departLane="best" from="317451316#4" to="-135777011#4"/>
    <trip id="veh10" type="veh_passenger" depart="14.42" departLane="best" from="314415495#8" to="22928674#1"/>
    <trip id="veh11" type="veh_passenger" depart="15.86" departLane="best" from="-52081075#3" to="-149611526#0"/>
    <trip id="veh12" type="veh_passenger" depart="17.30" departLane="best" from="683972875#2" to="-52460499#4"/>
    <trip id="veh13" type="veh_passenger" depart="18.74" departLane="best" from="-142575700#2" to="-142575704#11"/>
    <trip id="veh14" type="veh_passenger" depart="20.19" departLane="best" from="334308450" to="152839428"/>
    <trip id="veh15" type="veh_passenger" depart="21.63" departLane="best" from="317451315#0" to="24038573#1"/>
    <trip id="veh16" type="veh_passenger" depart="23.07" departLane="best" from="143308523#6" to="800655352"/>
    <trip id="veh17" type="veh_passenger" depart="24.51" departLane="best" from="-98256382#1" to="143308549#1"/>
    <trip id="veh18" type="veh_passenger" depart="25.95" departLane="best" from="318210373#1" to="169076559#1"/>
    <trip id="veh19" type="veh_passenger" depart="27.40" departLane="best" from="38159999#2" to="147859765#2"/>
    <trip id="veh20" type="veh_passenger" depart="28.84" departLane="best" from="221111489" to="-142575656#14"/>
    <trip id="veh21" type="veh_passenger" depart="30.28" departLane="best" from="-22956997#6" to="-334170244"/>
    <trip id="veh22" type="veh_passenger" depart="31.72" departLane="best" from="-142575688#6" to="-22956997#0"/>
    <trip id="veh23" type="veh_passenger" depart="33.16" departLane="best" from="-142575704#2" to="-318210369#0"/>
    <trip id="veh24" type="veh_passenger" depart="34.61" departLane="best" from="169076556#0" to="-94517926#0"/>
    <trip id="veh25" type="veh_passenger" depart="36.05" departLane="best" from="-841345135#0" to="-206579063#0"/>
    <trip id="veh26" type="veh_passenger" depart="37.49" departLane="best" from="180789857#9" to="153021549#1"/>
    <trip id="veh27" type="veh_passenger" depart="38.93" departLane="best" from="-169076556#1" to="24038573#0"/>
    <trip id="veh28" type="veh_passenger" depart="40.37" departLane="best" from="-152466402#5" to="113575152#13"/>
    <trip id="veh29" type="veh_passenger" depart="41.82" departLane="best" from="841345135#1" to="190083618#0"/>
    <trip id="veh30" type="veh_passenger" depart="43.26" departLane="best" from="143308546#3" to="22729317#0"/>
    <trip id="veh31" type="veh_passenger" depart="44.70" departLane="best" from="320741895#0" to="292525973"/>
    <trip id="veh32" type="veh_passenger" depart="46.14" departLane="best" departSpeed="max" from="-23788323" to="-140964910#3"/>
    <trip id="veh33" type="veh_passenger" depart="47.58" departLane="best" departSpeed="max" from="-38568628#1" to="-314415495#22"/>
    <trip id="veh34" type="veh_passenger" depart="49.02" departLane="best" from="-22928674#3" to="670062913#1"/>
    <trip id="veh35" type="veh_passenger" depart="50.47" departLane="best" from="40191605#1" to="-38568633#1"/>
    <trip id="veh36" type="veh_passenger" depart="51.91" departLane="best" departSpeed="max" from="187123053#0" to="137483015#3"/>
    <trip id="veh37" type="veh_passenger" depart="53.35" departLane="best" from="52081075#4" to="142575672#4"/>
    <trip id="veh38" type="veh_passenger" depart="54.79" departLane="best" from="-314415495#16" to="-24733698#3"/>
    <trip id="veh39" type="veh_passenger" depart="56.23" departLane="best" from="143308549#2" to="-314415495#11"/>
    <trip id="veh40" type="veh_passenger" depart="57.68" departLane="best" from="147859763#3" to="48298278#0"/>
    <trip id="veh41" type="veh_passenger" depart="59.12" departLane="best" from="135777010#17" to="-22928648#1"/>
    <trip id="veh42" type="veh_passenger" depart="60.56" departLane="best" from="9859700#2" to="142575704#2"/>
    <trip id="veh43" type="veh_passenger" depart="62.00" departLane="best" from="-142575699#2" to="-142575656#6"/>
    <trip id="veh44" type="veh_passenger" depart="63.44" departLane="best" from="-143308505#1" to="180789857#2"/>
    <trip id="veh46" type="veh_passenger" depart="66.33" departLane="best" from="-142575672#3" to="113575152#5"/>
    <trip id="veh47" type="veh_passenger" depart="67.77" departLane="best" departSpeed="max" from="9859700#0" to="143308523#9"/>
    <trip id="veh48" type="veh_passenger" depart="69.21" departLane="best" from="73058506#3" to="38568633#1"/>
    <trip id="veh49" type="veh_passenger" depart="70.65" departLane="best" from="-137483015#3" to="23788323"/>
    <trip id="veh50" type="veh_passenger" depart="72.10" departLane="best" from="204721579#1" to="143308542#1"/>
    <trip id="veh51" type="veh_passenger" depart="73.54" departLane="best" from="-314415495#21" to="190928926#0"/>
    <trip id="veh52" type="veh_passenger" depart="74.98" departLane="best" from="-143308521#1" to="141968853#3"/>
    <trip id="veh53" type="veh_passenger" depart="76.42" departLane="best" from="142575657#1" to="670062925"/>
    <trip id="veh54" type="veh_passenger" depart="77.86" departLane="best" from="40191605#1" to="-314415495#12"/>
    <trip id="veh55" type="veh_passenger" depart="79.31" departLane="best" from="142575693#4" to="-152839466#1"/>
    <trip id="veh56" type="veh_passenger" depart="80.75" departLane="best" from="-347935096#7" to="190083616#0"/>
    <trip id="veh57" type="veh_passenger" depart="82.19" departLane="best" from="152447118#8" to="-149611514#8"/>
    <trip id="veh59" type="veh_passenger" depart="85.07" departLane="best" from="283006416#0" to="143308527#5"/>
    <trip id="veh60" type="veh_passenger" depart="86.51" departLane="best" from="-135777010#1" to="-5060708#10"/>
    <trip id="veh61" type="veh_passenger" depart="87.96" departLane="best" from="-138624421#9" to="541676219"/>
    <trip id="veh62" type="veh_passenger" depart="89.40" departLane="best" from="40191605#4" to="320744688"/>
    <trip id="veh63" type="veh_passenger" depart="90.84" departLane="best" from="-38159999#10" to="-142575662#2"/>
    <trip id="veh64" type="veh_passenger" depart="92.28" departLane="best" from="40191605#3" to="670062919#3"/>
    <trip id="veh65" type="veh_passenger" depart="93.72" departLane="best" from="-142575679#3" to="270282145#3"/>
    <trip id="veh66" type="veh_passenger" depart="95.17" departLane="best" from="26991766#16" to="-143308601#0"/>
    <trip id="veh67" type="veh_passenger" depart="96.61" departLane="best" from="142575679#7" to="143308546#4"/>
    <trip id="veh68" type="veh_passenger" depart="98.05" departLane="best" from="-314415495#17" to="40191606#3"/>
    <trip id="veh69" type="veh_passenger" depart="99.49" departLane="best" from="138624477#4" to="-22729317#0"/>
    <trip id="veh70" type="veh_passenger" depart="100.93" departLane="best" from="143308527#5" to="24038573#2"/>
    <trip id="veh71" type="veh_passenger" depart="102.38" departLane="best" departSpeed="max" from="-22758963" to="-38507369#3"/>
    <trip id="veh72" type="veh_passenger" depart="103.82" departLane="best" departSpeed="max" from="9859700#0" to="190928927#6"/>
    <trip id="veh73" type="veh_passenger" depart="105.26" departLane="best" from="141968844#2" to="143308493#4"/>
    <trip id="veh74" type="veh_passenger" depart="106.70" departLane="best" from="-143308527#1" to="-22928688#3"/>
    <trip id="veh75" type="veh_passenger" depart="108.14" departLane="best" from="-5060708#9" to="149611524#2"/>
    <trip id="veh76" type="veh_passenger" depart="109.59" departLane="best" departSpeed="max" from="-23788323" to="-22928674#1"/>
    <trip id="veh77" type="veh_passenger" depart="111.03" departLane="best" from="-142575679#8" to="187122892#3"/>
    <trip id="veh78" type="veh_passenger" depart="112.47" departLane="best" departSpeed="max" from="-23788323" to="5060708#13"/>
    <trip id="veh79" type="veh_passenger" depart="113.91" departLane="best" from="375685718#1" to="-142575679#9"/>
    <trip id="veh80" type="veh_passenger" depart="115.35" departLane="best" from="-22928686#0" to="-144909690#1"/>
    <trip id="veh81" type="veh_passenger" depart="116.79" departLane="best" from="579787986#1" to="146511461#9"/>
    <trip id="veh82" type="veh_passenger" depart="118.24" departLane="best" from="142575679#1" to="30978409#1"/>
    <trip id="veh83" type="veh_passenger" depart="119.68" departLane="best" from="317451316#0" to="-187122892#3"/>
    <trip id="veh84" type="veh_passenger" depart="121.12" departLane="best" from="-142575704#11" to="141968844#2"/>
    <trip id="veh85" type="veh_passenger" depart="122.56" departLane="best" departSpeed="max" from="140964907" to="142575679#9"/>
    <trip id="veh86" type="veh_passenger" depart="124.00" departLane="best" departSpeed="max" from="22956997#0" to="206579057"/>
    <trip id="veh87" type="veh_passenger" depart="125.45" departLane="best" from="81639675#3" to="-142575704#15"/>
    <trip id="veh88" type="veh_passenger" depart="126.89" departLane="best" from="135777011#5" to="-52460499#9"/>
    <trip id="veh89" type="veh_passenger" depart="128.33" departLane="best" from="-20553015#1" to="142575657#4"/>
    <trip id="veh90" type="veh_passenger" depart="129.77" departLane="best" departSpeed="max" from="138624477#0" to="-318210369#0"/>
    <trip id="veh91" type="veh_passenger" depart="131.21" departLane="best" from="-26991766#5" to="52460499#10"/>
    <trip id="veh92" type="veh_passenger" depart="132.66" departLane="best" from="141968913#1" to="38574183#1"/>
    <trip id="veh93" type="veh_passenger" depart="134.10" departLane="best" from="143308542#3" to="-142575657#3"/>
    <trip id="veh94" type="veh_passenger" depart="135.54" departLane="best" from="9859700#6" to="347935096#0"/>
    <trip id="veh95" type="veh_passenger" depart="136.98" departLane="best" from="72230304#1" to="52460499#5"/>
    <trip id="veh96" type="veh_passenger" depart="138.42" departLane="best" from="142575688#2" to="-22729318#1"/>
    <trip id="veh97" type="veh_passenger" depart="139.87" departLane="best" from="-98256382#2" to="841345129#5"/>
    <trip id="veh98" type="veh_passenger" depart="141.31" departLane="best" from="-314415495#17" to="30978409#0"/>
    <trip id="veh99" type="veh_passenger" depart="142.75" departLane="best" from="142575657#4" to="140964924"/>
    <trip id="veh100" type="veh_passenger" depart="144.19" departLane="best" from="683972875#2" to="98256382#3"/>
    <trip id="veh101" type="veh_passenger" depart="145.63" departLane="best" from="143308546#11" to="231626692#1"/>
    <trip id="veh102" type="veh_passenger" depart="147.07" departLane="best" from="-152447118#2" to="-347935096#7"/>
    <trip id="veh103" type="veh_passenger" depart="148.52" departLane="best" from="71960633#2" to="147859766"/>
    <trip id="veh104" type="veh_passenger" depart="149.96" departLane="best" from="143308532#5" to="26613776#1"/>
    <trip id="veh105" type="veh_passenger" depart="151.40" departLane="best" from="-142575659#0" to="149611514#3"/>
    <trip id="veh106" type="veh_passenger" depart="152.84" departLane="best" from="142575694#1" to="38160000"/>
    <trip id="veh107" type="veh_passenger" depart="154.28" departLane="best" from="-152447118#8" to="683972875#2"/>
    <trip id="veh108" type="veh_passenger" depart="155.73" departLane="best" from="-142575688#7" to="-172013798#5"/>
    <trip id="veh109" type="veh_passenger" depart="157.17" departLane="best" from="149611514#4" to="206579058#1"/>
    <trip id="veh110" type="veh_passenger" depart="158.61" departLane="best" from="-23925122#1" to="-143308523#9"/>
    <trip id="veh111" type="veh_passenger" depart="160.05" departLane="best" from="43660343#1" to="-24733698#1"/>
    <trip id="veh112" type="veh_passenger" depart="161.49" departLane="best" from="149611514#3" to="169076559#2"/>
    <trip id="veh113" type="veh_passenger" depart="162.94" departLane="best" from="138624469#3" to="149611514#2"/>
    <trip id="veh114" type="veh_passenger" depart="164.38" departLane="best" from="-229228933#1" to="231626692#1"/>
    <trip id="veh115" type="veh_passenger" depart="165.82" departLane="best" from="-23925124#1" to="137483015#3"/>
    <trip id="veh116" type="veh_passenger" depart="167.26" departLane="best" from="-38568629" to="26991766#14"/>
    <trip id="veh117" type="veh_passenger" depart="168.70" departLane="best" from="-142575684#1" to="142575672#0"/>
    <trip id="veh118" type="veh_passenger" depart="170.15" departLane="best" from="9859700#3" to="98256382#3"/>
    <trip id="veh119" type="veh_passenger" depart="171.59" departLane="best" from="-142575684#4" to="-22729318#0"/>
    <trip id="veh120" type="veh_passenger" depart="173.03" departLane="best" from="-314415495#17" to="670062902#2"/>
    <trip id="veh121" type="veh_passenger" depart="174.47" departLane="best" from="40191606#2" to="40191607#2"/>
    <trip id="veh122" type="veh_passenger" depart="175.91" departLane="best" from="-841345129#7" to="-152447118#0"/>
    <trip id="veh123" type="veh_passenger" depart="177.36" departLane="best" from="318210378#4" to="22928690#0"/>
    <trip id="veh124" type="veh_passenger" depart="178.80" departLane="best" from="152466402#12" to="843190005#0"/>
    <trip id="veh125" type="veh_passenger" depart="180.24" departLane="best" departSpeed="max" from="187123053#0" to="-137483015#0"/>
    <trip id="veh126" type="veh_passenger" depart="181.68" departLane="best" departSpeed="max" from="318210355" to="-35554225#0"/>
    <trip id="veh127" type="veh_passenger" depart="183.12" departLane="best" from="190928926#0" to="670062907#6"/>
    <trip id="veh128" type="veh_passenger" depart="184.56" departLane="best" from="-146511461#6" to="-143308523#0"/>
    <trip id="veh129" type="veh_passenger" depart="186.01" departLane="best" from="-142575710#8" to="143308549#3"/>
    <trip id="veh130" type="veh_passenger" depart="187.45" departLane="best" departSpeed="max" from="-317451315#1" to="152839434#1"/>
    <trip id="veh131" type="veh_passenger" depart="188.89" departLane="best" from="22928674#3" to="-19211030#4"/>
    <trip id="veh132" type="veh_passenger" depart="190.33" departLane="best" from="166142951#0" to="-314415495#13"/>
    <trip id="veh133" type="veh_passenger" depart="191.77" departLane="best" from="142575688#7" to="5060708#13"/>
    <trip id="veh134" type="veh_passenger" depart="193.22" departLane="best" departSpeed="max" from="140964907" to="-318210362"/>
    <trip id="veh135" type="veh_passenger" depart="194.66" departLane="best" departSpeed="max" from="-135777010#18" to="283317444#3"/>
    <trip id="veh136" type="veh_passenger" depart="196.10" departLane="best" from="169076556#3" to="-314415495#1"/>
    <trip id="veh137" type="veh_passenger" depart="197.54" departLane="best" from="24038573#0" to="143308549#1"/>
    <trip id="veh138" type="veh_passenger" depart="198.98" departLane="best" from="140964910#3" to="-137534616#1"/>
    <trip id="veh139" type="veh_passenger" depart="200.43" departLane="best" from="-142575688#0" to="412992935#2"/>
    <trip id="veh140" type="veh_passenger" depart="201.87" departLane="best" from="48858193#2" to="143308546#1"/>
    <trip id="veh141" type="veh_passenger" depart="203.31" departLane="best" from="318210378#5" to="149611514#0"/>
    <trip id="veh142" type="veh_passenger" depart="204.75" departLane="best" from="-149611514#4" to="-143308601#0"/>
    <trip id="veh143" type="veh_passenger" depart="206.19" departLane="best" from="-38159999#3" to="48858191#1"/>
    <trip id="veh144" type="veh_passenger" depart="207.64" departLane="best" from="313964778#2" to="38568633#0"/>
    <trip id="veh145" type="veh_passenger" depart="209.08" departLane="best" from="461514282#1" to="-206579064#0"/>
    <trip id="veh146" type="veh_passenger" depart="210.52" departLane="best" from="-26991766#4" to="-142575704#4"/>
    <trip id="veh147" type="veh_passenger" depart="211.96" departLane="best" from="283317443#1" to="414563781"/>
    <trip id="veh148" type="veh_passenger" depart="213.40" departLane="best" from="137534616#3" to="172013798#4"/>
    <trip id="veh149" type="veh_passenger" depart="214.84" departLane="best" from="-152447118#2" to="574527503"/>
    <trip id="veh150" type="veh_passenger" depart="216.29" departLane="best" from="38159999#9" to="81096611#1"/>
    <trip id="veh151" type="veh_passenger" depart="217.73" departLane="best" from="318210353" to="408709154#0"/>
    <trip id="veh152" type="veh_passenger" depart="219.17" departLane="best" from="-138624452#0" to="257072321#7"/>
    <trip id="veh153" type="veh_passenger" depart="220.61" departLane="best" departSpeed="max" from="-5060708#13" to="578659322#1"/>
    <trip id="veh154" type="veh_passenger" depart="222.05" departLane="best" from="314415495#22" to="38915289#6"/>
    <trip id="veh155" type="veh_passenger" depart="223.50" departLane="best" from="318210353" to="-314415495#20"/>
    <trip id="veh156" type="veh_passenger" depart="224.94" departLane="best" departSpeed="max" from="292525972" to="-143308493#3"/>
    <trip id="veh157" type="veh_passenger" depart="226.38" departLane="best" from="38915289#1" to="38568629"/>
    <trip id="veh158" type="veh_passenger" depart="227.82" departLane="best" from="-22928749#1" to="318210373#1"/>
    <trip id="veh159" type="veh_passenger" depart="229.26" departLane="best" from="142575661#3" to="-38159999#1"/>
    <trip id="veh160" type="veh_passenger" depart="230.71" departLane="best" from="313964778#1" to="-22928698"/>
    <trip id="veh161" type="veh_passenger" depart="232.15" departLane="best" from="-138624445#7" to="-187123053#0"/>
    <trip id="veh162" type="veh_passenger" depart="233.59" departLane="best" departSpeed="max" from="-46150481#3" to="38915290#1"/>
    <trip id="veh163" type="veh_passenger" depart="235.03" departLane="best" from="71028777#2" to="-318210369#1"/>
    <trip id="veh164" type="veh_passenger" depart="236.47" departLane="best" from="172014854#1" to="138624421#11"/>
    <trip id="veh165" type="veh_passenger" depart="237.92" departLane="best" from="81096611#6" to="143308542#0"/>
    <trip id="veh166" type="veh_passenger" depart="239.36" departLane="best" from="670062907#3" to="-143308523#0"/>
    <trip id="veh167" type="veh_passenger" depart="240.80" departLane="best" from="73058506#2" to="-152839466#1"/>
    <trip id="veh168" type="veh_passenger" depart="242.24" departLane="best" from="70130339#1" to="-314415495#16"/>
    <trip id="veh169" type="veh_passenger" depart="243.68" departLane="best" from="-143308493#3" to="141968853#3"/>
    <trip id="veh170" type="veh_passenger" depart="245.12" departLane="best" from="229469715#0" to="-38568632#0"/>
    <trip id="veh171" type="veh_passenger" depart="246.57" departLane="best" from="152447118#2" to="142575704#3"/>
    <trip id="veh172" type="veh_passenger" depart="248.01" departLane="best" from="10735918#0" to="147859763#9"/>
    <trip id="veh173" type="veh_passenger" depart="249.45" departLane="best" from="-283317443#3" to="22928749#1"/>
    <trip id="veh174" type="veh_passenger" depart="250.89" departLane="best" from="-135777010#11" to="52460499#4"/>
    <trip id="veh175" type="veh_passenger" depart="252.33" departLane="best" from="143308527#1" to="23788323"/>
    <trip id="veh176" type="veh_passenger" depart="253.78" departLane="best" from="24038573#2" to="20553068#2"/>
    <trip id="veh177" type="veh_passenger" depart="255.22" departLane="best" from="-81096611#4" to="-142575679#7"/>
    <trip id="veh178" type="veh_passenger" depart="256.66" departLane="best" from="190928927#1" to="-52080655#2"/>
    <trip id="veh179" type="veh_passenger" depart="258.10" departLane="best" departSpeed="max" from="-38568627#1" to="38159999#1"/>
    <trip id="veh180" type="veh_passenger" depart="259.54" departLane="best" from="22928686#1" to="-35554225#2"/>
    <trip id="veh181" type="veh_passenger" depart="260.99" departLane="best" from="-38159999#6" to="138624445#5"/>
    <trip id="veh182" type="veh_passenger" depart="262.43" departLane="best" from="135777011#0" to="-347935096#5"/>
    <trip id="veh183" type="veh_passenger" depart="263.87" departLane="best" from="-143308601#1" to="140964910#4"/>
    <trip id="veh184" type="veh_passenger" depart="265.31" departLane="best" from="670062907#4" to="206579062#2"/>
    <trip id="veh185" type="veh_passenger" depart="266.75" departLane="best" from="48858193#1" to="166142951#1"/>
    <trip id="veh186" type="veh_passenger" depart="268.20" departLane="best" departSpeed="max" from="-353948098" to="143308546#2"/>
    <trip id="veh187" type="veh_passenger" depart="269.64" departLane="best" from="-135777010#0" to="-318210378#9"/>
    <trip id="veh188" type="veh_passenger" depart="271.08" departLane="best" departSpeed="max" from="141968799" to="149611511#0"/>
    <trip id="veh189" type="veh_passenger" depart="272.52" departLane="best" departSpeed="max" from="187123053#0" to="142575679#5"/>
    <trip id="veh190" type="veh_passenger" depart="273.96" departLane="best" from="141968853#4" to="-22729318#1"/>
    <trip id="veh191" type="veh_passenger" depart="275.41" departLane="best" from="142575679#2" to="48858193#1"/>
    <trip id="veh192" type="veh_passenger" depart="276.85" departLane="best" from="313964778#2" to="-152466402#5"/>
    <trip id="veh193" type="veh_passenger" depart="278.29" departLane="best" from="-142575694#0" to="142575710#8"/>
    <trip id="veh194" type="veh_passenger" depart="279.73" departLane="best" from="153021549#6" to="-52460499#12"/>
    <trip id="veh195" type="veh_passenger" depart="281.17" departLane="best" from="318210360#0" to="26991766#13"/>
    <trip id="veh196" type="veh_passenger" depart="282.61" departLane="best" from="190928927#8" to="-22928688#3"/>
    <trip id="veh197" type="veh_passenger" depart="284.06" departLane="best" from="-22729317#1" to="-138624469#5"/>
    <trip id="veh198" type="veh_passenger" depart="285.50" departLane="best" departSpeed="max" from="-26613776#1" to="142575688#10"/>
    <trip id="veh199" type="veh_passenger" depart="286.94" departLane="best" from="347935096#3" to="-142575684#6"/>
    <trip id="veh200" type="veh_passenger" depart="288.38" departLane="best" from="138624445#13" to="187122892#1"/>
    <trip id="veh201" type="veh_passenger" depart="289.82" departLane="best" departSpeed="max" from="-20553068#3" to="22928643"/>
    <trip id="veh202" type="veh_passenger" depart="291.27" departLane="best" from="142575691#1" to="-24214694#3"/>
    <trip id="veh203" type="veh_passenger" depart="292.71" departLane="best" from="187123053#1" to="-135777010#6"/>
    <trip id="veh204" type="veh_passenger" depart="294.15" departLane="best" from="257072321#11" to="283317444#1"/>
    <trip id="veh205" type="veh_passenger" depart="295.59" departLane="best" from="-142575710#7" to="141968807#1"/>
    <trip id="veh206" type="veh_passenger" depart="297.03" departLane="best" from="-172014854#1" to="677933664#7"/>
    <trip id="veh207" type="veh_passenger" depart="298.48" departLane="best" from="142575704#19" to="-142575657#3"/>
    <trip id="veh208" type="veh_passenger" depart="299.92" departLane="best" from="142575658#0" to="317451316#1"/>
    <trip id="veh210" type="veh_passenger" depart="302.80" departLane="best" from="149611514#5" to="670062921"/>
    <trip id="veh211" type="veh_passenger" depart="304.24" departLane="best" from="45875465" to="153021549#4"/>
    <trip id="veh212" type="veh_passenger" depart="305.69" departLane="best" from="22928686#0" to="142575704#1"/>
    <trip id="veh213" type="veh_passenger" depart="307.13" departLane="best" from="318210374" to="143308546#2"/>
    <trip id="veh214" type="veh_passenger" depart="308.57" departLane="best" from="46150483#1" to="259466417#1"/>
    <trip id="veh215" type="veh_passenger" depart="310.01" departLane="best" from="142575679#6" to="-283317455#1"/>
    <trip id="veh216" type="veh_passenger" depart="311.45" departLane="best" departSpeed="max" from="-26613776#1" to="190083608#3"/>
    <trip id="veh217" type="veh_passenger" depart="312.89" departLane="best" from="26991766#16" to="143308521#12"/>
    <trip id="veh218" type="veh_passenger" depart="314.34" departLane="best" from="152839466#4" to="-317451316#3"/>
    <trip id="veh219" type="veh_passenger" depart="315.78" departLane="best" from="-142575688#2" to="-318210378#5"/>
    <trip id="veh220" type="veh_passenger" depart="317.22" departLane="best" from="-317451315#0" to="-43660343#0"/>
    <trip id="veh221" type="veh_passenger" depart="318.66" departLane="best" from="143308527#7" to="-147859763#0"/>
    <trip id="veh222" type="veh_passenger" depart="320.10" departLane="best" from="-23913524#1" to="229228933#3"/>
    <trip id="veh223" type="veh_passenger" depart="321.55" departLane="best" from="22729317#1" to="-142575677#0"/>
    <trip id="veh224" type="veh_passenger" depart="322.99" departLane="best" from="138624421#1" to="143308542#4"/>
    <trip id="veh225" type="veh_passenger" depart="324.43" departLane="best" from="138624445#18" to="-20553068#1"/>
    <trip id="veh226" type="veh_passenger" depart="325.87" departLane="best" from="138624469#6" to="5060708#13"/>
    <trip id="veh227" type="veh_passenger" depart="327.31" departLane="best" from="147859763#2" to="22928629"/>
    <trip id="veh228" type="veh_passenger" depart="328.76" departLane="best" from="35554225#4" to="283006416#0"/>
    <trip id="veh229" type="veh_passenger" depart="330.20" departLane="best" departSpeed="max" from="-98256382#3" to="-135777010#9"/>
    <trip id="veh230" type="veh_passenger" depart="331.64" departLane="best" departSpeed="max" from="-670062913#1" to="26991766#17"/>
    <trip id="veh231" type="veh_passenger" depart="333.08" departLane="best" departSpeed="max" from="35554225#0" to="670062925"/>
    <trip id="veh232" type="veh_passenger" depart="334.52" departLane="best" from="138624469#2" to="26613776#1"/>
    <trip id="veh233" type="veh_passenger" depart="335.97" departLane="best" from="143308542#11" to="152466402#9"/>
    <trip id="veh234" type="veh_passenger" depart="337.41" departLane="best" departSpeed="max" from="-22928724" to="-22928648#1"/>
    <trip id="veh235" type="veh_passenger" depart="338.85" departLane="best" from="141968830#1" to="-140964907"/>
    <trip id="veh236" type="veh_passenger" depart="340.29" departLane="best" from="-5060708#5" to="206579064#0"/>
    <trip id="veh237" type="veh_passenger" depart="341.73" departLane="best" from="137483015#5" to="-152466402#1"/>
    <trip id="veh238" type="veh_passenger" depart="343.17" departLane="best" from="142575674#1" to="-143308601#0"/>
    <trip id="veh239" type="veh_passenger" depart="344.62" departLane="best" departSpeed="max" from="152839426" to="-138624477#1"/>
    <trip id="veh240" type="veh_passenger" depart="346.06" departLane="best" from="113575152#7" to="143308601#2"/>
    <trip id="veh241" type="veh_passenger" depart="347.50" departLane="best" departSpeed="max" from="-138624452#1" to="190928927#1"/>
    <trip id="veh242" type="veh_passenger" depart="348.94" departLane="best" from="-146511461#9" to="142575674#3"/>
    <trip id="veh243" type="veh_passenger" depart="350.38" departLane="best" from="-142575656#4" to="113575152#13"/>
    <trip id="veh244" type="veh_passenger" depart="351.83" departLane="best" departSpeed="max" from="-22928674#5" to="-5060708#4"/>
    <trip id="veh245" type="veh_passenger" depart="353.27" departLane="best" from="259466417#4" to="113575152#13"/>
    <trip id="veh246" type="veh_passenger" depart="354.71" departLane="best" from="257072321#4" to="326994261#0"/>
    <trip id="veh247" type="veh_passenger" depart="356.15" departLane="best" from="-278500217#4" to="-142575690#6"/>
    <trip id="veh248" type="veh_passenger" depart="357.59" departLane="best" from="-138624421#9" to="143308542#17"/>
    <trip id="veh249" type="veh_passenger" depart="359.04" departLane="best" from="99157761#0" to="-802021414#1"/>
    <trip id="veh250" type="veh_passenger" depart="360.48" departLane="best" from="187122892#2" to="292525974"/>