<?xml version="1.0" encoding="UTF-8"?>
<routes xmlns:xsi="http://www.w3.org/2001/XMLSchema-instance" xsi:noNamespaceSchemaLocation="http://sumo.dlr.de/xsd/routes_file.xsd">
    <personFlow id="pflow" begin="0.00" end="3600.00" number="1000">
        <personTrip from="-115227682#0" to="540224357#1" modes="public"/>
    </personFlow>
</routes>
