<?xml version="1.0" encoding="UTF-8"?>

<!-- generated on 05/02/19 10:03:05 by Eclipse SUMO netgenerate Version v1_0_1+0593-c54b143026
-->

<configuration xmlns:xsi="http://www.w3.org/2001/XMLSchema-instance" xsi:noNamespaceSchemaLocation="http://sumo.dlr.de/xsd/netgenerateConfiguration.xsd">

    <grid_network>
        <grid value="true"/>
    </grid_network>

    <output>
        <output-file value="grid.net.xml"/>
    </output>

</configuration>
