<?xml version="1.0" encoding="UTF-8"?>

<!-- generated on 05/02/19 10:10:22 by Eclipse SUMO netgenerate Version v1_0_1+0593-c54b143026
<configuration xmlns:xsi="http://www.w3.org/2001/XMLSchema-instance" xsi:noNamespaceSchemaLocation="http://sumo.dlr.de/xsd/netgenerateConfiguration.xsd">

    <grid_network>
        <grid value="true"/>
    </grid_network>

    <random_network>
        <rand.random-lanenumber value="true"/>
    </random_network>

    <output>
        <output-file value="grid_fancy.net.xml"/>
    </output>

    <processing>
        <turn-lanes value="1"/>
        <turn-lanes.length value="50"/>
    </processing>

    <building_defaults>
        <default.lanenumber value="2"/>
    </building_defaults>

    <tls_building>
        <tls.guess value="true"/>
        <tls.guess.threshold value="150"/>
    </tls_building>

    <junctions>
        <no-turnarounds.tls value="true"/>
    </junctions>

</configuration>
-->

<net version="1.3" junctionCornerDetail="5" limitTurnSpeed="5.50" xmlns:xsi="http://www.w3.org/2001/XMLSchema-instance" xsi:noNamespaceSchemaLocation="http://sumo.dlr.de/xsd/net_file.xsd">

    <location netOffset="1.60,1.60" convBoundary="0.00,0.00,403.20,403.20" origBoundary="0.00,0.00,400.00,400.00" projParameter="!"/>

    <edge id=":A0_0" function="internal">
        <lane id=":A0_0_0" index="0" speed="10.88" length="27.14" shape="-1.60,13.60 -0.65,5.55 2.20,-0.20 6.95,-3.65 13.60,-4.80"/>
    </edge>
    <edge id=":A0_1" function="internal">
        <lane id=":A0_1_0" index="0" speed="10.36" length="24.51" shape="-1.60,13.60 -0.65,6.95 2.20,2.20 6.95,-0.65 13.60,-1.60"/>
    </edge>
    <edge id=":A0_2" function="internal">
        <lane id=":A0_2_0" index="0" speed="6.51" length="9.03" shape="13.60,8.00 11.15,8.35 9.40,9.40 8.35,11.15 8.00,13.60"/>
    </edge>
    <edge id=":A0_3" function="internal">
        <lane id=":A0_3_0" index="0" speed="8.00" length="14.19" shape="13.60,4.80 9.75,5.35 7.00,7.00 5.35,9.75 4.80,13.60"/>
    </edge>
    <edge id=":A0A1.50.00_0" function="internal">
        <lane id=":A0A1.50.00_0_0" index="0" speed="13.89" length="8.27" shape="8.00,47.60 8.00,55.60"/>
        <lane id=":A0A1.50.00_0_1" index="1" speed="13.89" length="8.27" shape="4.80,47.60 4.80,55.60"/>
        <lane id=":A0A1.50.00_0_2" index="2" speed="13.89" length="8.27" shape="4.80,47.60 4.30,50.06 3.20,51.60 2.10,53.14 1.60,55.60"/>
    </edge>
    <edge id=":A0B0.50.00_0" function="internal">
        <lane id=":A0B0.50.00_0_0" index="0" speed="13.89" length="8.27" shape="47.60,-4.80 55.60,-4.80"/>
        <lane id=":A0B0.50.00_0_1" index="1" speed="13.89" length="8.27" shape="47.60,-1.60 55.60,-1.60"/>
        <lane id=":A0B0.50.00_0_2" index="2" speed="13.89" length="8.27" shape="47.60,-1.60 50.06,-1.10 51.60,0.00 53.14,1.10 55.60,1.60"/>
    </edge>
    <edge id=":A1_0" function="internal">
        <lane id=":A1_0_0" index="0" speed="13.89" length="24.25" shape="-4.80,113.60 -4.30,105.45 -3.20,98.94 -2.10,93.76 -1.60,89.60"/>
    </edge>
    <edge id=":A1_1" function="internal">
        <lane id=":A1_1_0" index="0" speed="10.88" length="12.67" shape="-1.60,113.60 -0.65,105.55 1.38,101.46"/>
    </edge>
    <edge id=":A1_2" function="internal">
        <lane id=":A1_2_0" index="0" speed="9.84" length="7.05" shape="1.60,113.60 2.35,106.95 2.50,106.63"/>
    </edge>
    <edge id=":A1_3" function="internal">
        <lane id=":A1_3_0" index="0" speed="3.65" length="2.19" shape="1.60,113.60 2.40,112.40 3.07,112.06"/>
    </edge>
    <edge id=":A1_12" function="internal">
        <lane id=":A1_12_0" index="0" speed="10.88" length="14.48" shape="1.38,101.46 2.20,99.80 6.95,96.35 13.60,95.20"/>
    </edge>
    <edge id=":A1_13" function="internal">
        <lane id=":A1_13_0" index="0" speed="9.84" length="14.94" shape="2.50,106.63 4.60,102.20 8.35,99.35 13.60,98.40"/>
    </edge>
    <edge id=":A1_14" function="internal">
        <lane id=":A1_14_0" index="0" speed="3.65" length="2.48" shape="3.07,112.06 3.20,112.00 4.00,112.40 4.80,113.60"/>
    </edge>
    <edge id=":A1_4" function="internal">
        <lane id=":A1_4_0" index="0" speed="6.51" length="9.03" shape="13.60,108.00 11.15,108.35 9.40,109.40 8.35,111.15 8.00,113.60"/>
    </edge>
    <edge id=":A1_5" function="internal">
        <lane id=":A1_5_0" index="0" speed="8.00" length="14.19" shape="13.60,104.80 9.75,105.35 7.00,107.00 5.35,109.75 4.80,113.60"/>
    </edge>
    <edge id=":A1_6" function="internal">
        <lane id=":A1_6_0" index="0" speed="9.84" length="21.99" shape="13.60,101.60 6.95,100.85 2.20,98.60 -0.65,94.85 -1.60,89.60"/>
    </edge>
    <edge id=":A1_7" function="internal">
        <lane id=":A1_7_0" index="0" speed="3.65" length="4.67" shape="13.60,101.60 12.40,100.80 12.00,100.00 12.40,99.20 13.60,98.40"/>
    </edge>
    <edge id=":A1_8" function="internal">
        <lane id=":A1_8_0" index="0" speed="6.51" length="9.03" shape="8.00,89.60 8.35,92.05 9.40,93.80 11.15,94.85 13.60,95.20"/>
    </edge>
    <edge id=":A1_9" function="internal">
        <lane id=":A1_9_0" index="0" speed="13.89" length="24.27" shape="4.80,89.60 5.30,97.05 6.40,102.39 7.50,107.33 8.00,113.60"/>
        <lane id=":A1_9_1" index="1" speed="13.89" length="24.27" shape="1.60,89.60 2.10,97.05 3.20,102.39 4.30,107.33 4.80,113.60"/>
    </edge>
    <edge id=":A1_11" function="internal">
        <lane id=":A1_11_0" index="0" speed="3.65" length="2.53" shape="1.60,89.60 0.80,90.80 -0.00,91.20 -0.17,91.11"/>
    </edge>
    <edge id=":A1_15" function="internal">
        <lane id=":A1_15_0" index="0" speed="3.65" length="2.15" shape="-0.17,91.11 -0.80,90.80 -1.60,89.60"/>
    </edge>
    <edge id=":A1A2.50.00_0" function="internal">
        <lane id=":A1A2.50.00_0_0" index="0" speed="13.89" length="8.27" shape="8.00,147.60 8.00,155.60"/>
        <lane id=":A1A2.50.00_0_1" index="1" speed="13.89" length="8.27" shape="4.80,147.60 4.80,155.60"/>
        <lane id=":A1A2.50.00_0_2" index="2" speed="13.89" length="8.27" shape="4.80,147.60 4.30,150.06 3.20,151.60 2.10,153.14 1.60,155.60"/>
    </edge>
    <edge id=":A1B1.50.00_0" function="internal">
        <lane id=":A1B1.50.00_0_0" index="0" speed="13.89" length="8.27" shape="47.60,95.20 55.60,95.20"/>
        <lane id=":A1B1.50.00_0_1" index="1" speed="13.89" length="8.27" shape="47.60,98.40 55.60,98.40"/>
        <lane id=":A1B1.50.00_0_2" index="2" speed="13.89" length="8.27" shape="47.60,98.40 50.06,98.90 51.60,100.00 53.14,101.10 55.60,101.60"/>
    </edge>
    <edge id=":A2_0" function="internal">
        <lane id=":A2_0_0" index="0" speed="13.89" length="24.00" shape="-4.80,213.60 -4.80,189.60"/>
        <lane id=":A2_0_1" index="1" speed="13.89" length="24.00" shape="-1.60,213.60 -1.60,189.60"/>
    </edge>
    <edge id=":A2_2" function="internal">
        <lane id=":A2_2_0" index="0" speed="9.84" length="6.03" shape="1.60,213.60 2.28,207.61"/>
    </edge>
    <edge id=":A2_3" function="internal">
        <lane id=":A2_3_0" index="0" speed="3.65" length="2.12" shape="1.60,213.60 2.40,212.40 3.01,212.10"/>
    </edge>
    <edge id=":A2_12" function="internal">
        <lane id=":A2_12_0" index="0" speed="9.84" length="15.97" shape="2.28,207.61 2.35,206.95 4.60,202.20 8.35,199.35 13.60,198.40"/>
    </edge>
    <edge id=":A2_13" function="internal">
        <lane id=":A2_13_0" index="0" speed="3.65" length="2.55" shape="3.01,212.10 3.20,212.00 4.00,212.40 4.80,213.60"/>
    </edge>
    <edge id=":A2_4" function="internal">
        <lane id=":A2_4_0" index="0" speed="7.33" length="11.73" shape="13.60,208.00 9.75,208.35 7.00,209.40 5.35,211.15 4.80,213.60"/>
    </edge>
    <edge id=":A2_5" function="internal">
        <lane id=":A2_5_0" index="0" speed="10.88" length="27.14" shape="13.60,204.80 5.55,203.85 -0.20,201.00 -3.65,196.25 -4.80,189.60"/>
    </edge>
    <edge id=":A2_6" function="internal">
        <lane id=":A2_6_0" index="0" speed="9.84" length="21.99" shape="13.60,201.60 6.95,200.85 2.20,198.60 -0.65,194.85 -1.60,189.60"/>
    </edge>
    <edge id=":A2_7" function="internal">
        <lane id=":A2_7_0" index="0" speed="3.65" length="4.67" shape="13.60,201.60 12.40,200.80 12.00,200.00 12.40,199.20 13.60,198.40"/>
    </edge>
    <edge id=":A2_8" function="internal">
        <lane id=":A2_8_0" index="0" speed="6.51" length="9.03" shape="8.00,189.60 8.35,192.05 9.40,193.80 11.15,194.85 13.60,195.20"/>
    </edge>
    <edge id=":A2_9" function="internal">
        <lane id=":A2_9_0" index="0" speed="8.00" length="14.19" shape="4.80,189.60 5.35,193.45 7.00,196.20 9.75,197.85 13.60,198.40"/>
    </edge>
    <edge id=":A2_10" function="internal">
        <lane id=":A2_10_0" index="0" speed="13.89" length="24.25" shape="1.60,189.60 2.10,197.75 3.20,204.26 4.30,209.44 4.80,213.60"/>
    </edge>
    <edge id=":A2_11" function="internal">
        <lane id=":A2_11_0" index="0" speed="3.65" length="2.34" shape="1.60,189.60 0.80,190.80 0.00,191.20"/>
    </edge>
    <edge id=":A2_14" function="internal">
        <lane id=":A2_14_0" index="0" speed="3.65" length="2.34" shape="0.00,191.20 -0.80,190.80 -1.60,189.60"/>
    </edge>
    <edge id=":A2A1.50.00_0" function="internal">
        <lane id=":A2A1.50.00_0_0" index="0" speed="13.89" length="8.27" shape="-4.80,155.60 -4.80,147.60"/>
        <lane id=":A2A1.50.00_0_1" index="1" speed="13.89" length="8.27" shape="-1.60,155.60 -1.60,147.60"/>
        <lane id=":A2A1.50.00_0_2" index="2" speed="13.89" length="8.27" shape="-1.60,155.60 -1.10,153.14 0.00,151.60 1.10,150.06 1.60,147.60"/>
    </edge>
    <edge id=":A2A3.50.00_0" function="internal">
        <lane id=":A2A3.50.00_0_0" index="0" speed="13.89" length="8.40" shape="4.80,247.60 4.80,255.60"/>
        <lane id=":A2A3.50.00_0_1" index="1" speed="13.89" length="8.40" shape="4.80,247.60 4.30,250.06 3.20,251.60 2.10,253.14 1.60,255.60"/>
    </edge>
    <edge id=":A2B2.50.00_0" function="internal">
        <lane id=":A2B2.50.00_0_0" index="0" speed="13.89" length="8.27" shape="47.60,195.20 55.60,195.20"/>
        <lane id=":A2B2.50.00_0_1" index="1" speed="13.89" length="8.27" shape="47.60,198.40 55.60,198.40"/>
        <lane id=":A2B2.50.00_0_2" index="2" speed="13.89" length="8.27" shape="47.60,198.40 50.06,198.90 51.60,200.00 53.14,201.10 55.60,201.60"/>
    </edge>
    <edge id=":A3_0" function="internal">
        <lane id=":A3_0_0" index="0" speed="13.89" length="17.98" shape="-1.60,310.40 -2.10,305.13 -3.20,301.60 -4.30,298.07 -4.80,292.80"/>
        <lane id=":A3_0_1" index="1" speed="13.89" length="17.98" shape="1.60,310.40 1.10,305.13 -0.00,301.60 -1.10,298.07 -1.60,292.80"/>
    </edge>
    <edge id=":A3_2" function="internal">
        <lane id=":A3_2_0" index="0" speed="8.67" length="7.89" shape="1.60,310.40 2.15,305.15 3.20,302.76"/>
    </edge>
    <edge id=":A3_3" function="internal">
        <lane id=":A3_3_0" index="0" speed="3.65" length="2.34" shape="1.60,310.40 2.40,309.20 3.20,308.80"/>
    </edge>
    <edge id=":A3_10" function="internal">
        <lane id=":A3_10_0" index="0" speed="8.67" length="8.97" shape="3.20,302.76 3.80,301.40 6.55,299.15 10.40,298.40"/>
    </edge>
    <edge id=":A3_11" function="internal">
        <lane id=":A3_11_0" index="0" speed="3.65" length="2.34" shape="3.20,308.80 4.00,309.20 4.80,310.40"/>
    </edge>
    <edge id=":A3_4" function="internal">
        <lane id=":A3_4_0" index="0" speed="6.51" length="9.03" shape="10.40,304.80 7.95,305.15 6.20,306.20 5.15,307.95 4.80,310.40"/>
    </edge>
    <edge id=":A3_5" function="internal">
        <lane id=":A3_5_0" index="0" speed="8.67" length="16.85" shape="10.40,301.60 5.15,301.05 1.40,299.40 -0.85,296.65 -1.60,292.80"/>
    </edge>
    <edge id=":A3_6" function="internal">
        <lane id=":A3_6_0" index="0" speed="3.65" length="4.67" shape="10.40,301.60 9.20,300.80 8.80,300.00 9.20,299.20 10.40,298.40"/>
    </edge>
    <edge id=":A3_7" function="internal">
        <lane id=":A3_7_0" index="0" speed="6.51" length="9.03" shape="4.80,292.80 5.15,295.25 6.20,297.00 7.95,298.05 10.40,298.40"/>
    </edge>
    <edge id=":A3_8" function="internal">
        <lane id=":A3_8_0" index="0" speed="13.89" length="17.60" shape="4.80,292.80 4.80,310.40"/>
    </edge>
    <edge id=":A3_9" function="internal">
        <lane id=":A3_9_0" index="0" speed="3.65" length="2.17" shape="1.60,292.80 0.80,294.00 0.15,294.32"/>
    </edge>
    <edge id=":A3_12" function="internal">
        <lane id=":A3_12_0" index="0" speed="3.65" length="2.51" shape="0.15,294.32 0.00,294.40 -0.80,294.00 -1.60,292.80"/>
    </edge>
    <edge id=":A3A2.50.00_0" function="internal">
        <lane id=":A3A2.50.00_0_0" index="0" speed="13.89" length="8.27" shape="-4.80,255.60 -4.80,247.60"/>
        <lane id=":A3A2.50.00_0_1" index="1" speed="13.89" length="8.27" shape="-1.60,255.60 -1.60,247.60"/>
        <lane id=":A3A2.50.00_0_2" index="2" speed="13.89" length="8.27" shape="-1.60,255.60 -1.10,253.14 -0.00,251.60 1.10,250.06 1.60,247.60"/>
    </edge>
    <edge id=":A3B3.50.00_0" function="internal">
        <lane id=":A3B3.50.00_0_0" index="0" speed="13.89" length="8.40" shape="47.60,298.40 55.60,298.40"/>
        <lane id=":A3B3.50.00_0_1" index="1" speed="13.89" length="8.40" shape="47.60,298.40 50.06,298.90 51.60,300.00 53.14,301.10 55.60,301.60"/>
    </edge>
    <edge id=":A4_0" function="internal">
        <lane id=":A4_0_0" index="0" speed="7.66" length="12.90" shape="6.40,404.80 2.90,404.30 0.40,402.80 -1.10,400.30 -1.60,396.80"/>
    </edge>
    <edge id=":A4_1" function="internal">
        <lane id=":A4_1_0" index="0" speed="3.90" length="2.58" shape="4.80,396.80 4.90,397.50 5.20,398.00 5.70,398.30 6.40,398.40"/>
    </edge>
    <edge id=":A4A3.50.00_0" function="internal">
        <lane id=":A4A3.50.00_0_0" index="0" speed="13.89" length="8.40" shape="-1.60,355.60 -1.60,347.60"/>
        <lane id=":A4A3.50.00_0_1" index="1" speed="13.89" length="8.40" shape="-1.60,355.60 -1.10,353.14 0.00,351.60 1.10,350.06 1.60,347.60"/>
    </edge>
    <edge id=":A4B4.50.00_0" function="internal">
        <lane id=":A4B4.50.00_0_0" index="0" speed="13.89" length="8.40" shape="47.60,398.40 55.60,398.40"/>
        <lane id=":A4B4.50.00_0_1" index="1" speed="13.89" length="8.40" shape="47.60,398.40 50.06,398.90 51.60,400.00 53.14,401.10 55.60,401.60"/>
    </edge>
    <edge id=":B0_0" function="internal">
        <lane id=":B0_0_0" index="0" speed="6.51" length="9.03" shape="95.20,13.60 94.85,11.15 93.80,9.40 92.05,8.35 89.60,8.00"/>
    </edge>
    <edge id=":B0_1" function="internal">
        <lane id=":B0_1_0" index="0" speed="8.00" length="14.19" shape="98.40,13.60 97.85,9.75 96.20,7.00 93.45,5.35 89.60,4.80"/>
    </edge>
    <edge id=":B0_2" function="internal">
        <lane id=":B0_2_0" index="0" speed="9.84" length="21.99" shape="101.60,13.60 102.35,6.95 104.60,2.20 108.35,-0.65 113.60,-1.60"/>
    </edge>
    <edge id=":B0_3" function="internal">
        <lane id=":B0_3_0" index="0" speed="3.65" length="4.67" shape="101.60,13.60 102.40,12.40 103.20,12.00 104.00,12.40 104.80,13.60"/>
    </edge>
    <edge id=":B0_4" function="internal">
        <lane id=":B0_4_0" index="0" speed="6.51" length="9.03" shape="113.60,8.00 111.15,8.35 109.40,9.40 108.35,11.15 108.00,13.60"/>
    </edge>
    <edge id=":B0_5" function="internal">
        <lane id=":B0_5_0" index="0" speed="13.89" length="24.27" shape="113.60,4.80 106.15,5.30 100.81,6.40 95.87,7.50 89.60,8.00"/>
        <lane id=":B0_5_1" index="1" speed="13.89" length="24.27" shape="113.60,1.60 106.15,2.10 100.81,3.20 95.87,4.30 89.60,4.80"/>
    </edge>
    <edge id=":B0_7" function="internal">
        <lane id=":B0_7_0" index="0" speed="3.65" length="2.53" shape="113.60,1.60 112.40,0.80 112.00,0.00 112.09,-0.17"/>
    </edge>
    <edge id=":B0_12" function="internal">
        <lane id=":B0_12_0" index="0" speed="3.65" length="2.15" shape="112.09,-0.17 112.40,-0.80 113.60,-1.60"/>
    </edge>
    <edge id=":B0_8" function="internal">
        <lane id=":B0_8_0" index="0" speed="13.89" length="24.25" shape="89.60,-4.80 97.75,-4.30 104.26,-3.20 109.44,-2.10 113.60,-1.60"/>
    </edge>
    <edge id=":B0_9" function="internal">
        <lane id=":B0_9_0" index="0" speed="10.88" length="12.67" shape="89.60,-1.60 97.65,-0.65 101.74,1.38"/>
    </edge>
    <edge id=":B0_10" function="internal">
        <lane id=":B0_10_0" index="0" speed="9.84" length="7.05" shape="89.60,1.60 96.25,2.35 96.57,2.50"/>
    </edge>
    <edge id=":B0_11" function="internal">
        <lane id=":B0_11_0" index="0" speed="3.65" length="2.19" shape="89.60,1.60 90.80,2.40 91.14,3.07"/>
    </edge>
    <edge id=":B0_13" function="internal">
        <lane id=":B0_13_0" index="0" speed="10.88" length="14.48" shape="101.74,1.38 103.40,2.20 106.85,6.95 108.00,13.60"/>
    </edge>
    <edge id=":B0_14" function="internal">
        <lane id=":B0_14_0" index="0" speed="9.84" length="14.94" shape="96.57,2.50 101.00,4.60 103.85,8.35 104.80,13.60"/>
    </edge>
    <edge id=":B0_15" function="internal">
        <lane id=":B0_15_0" index="0" speed="3.65" length="2.48" shape="91.14,3.07 91.20,3.20 90.80,4.00 89.60,4.80"/>
    </edge>
    <edge id=":B0B1.50.00_0" function="internal">
        <lane id=":B0B1.50.00_0_0" index="0" speed="13.89" length="8.27" shape="108.00,47.60 108.00,55.60"/>
        <lane id=":B0B1.50.00_0_1" index="1" speed="13.89" length="8.27" shape="104.80,47.60 104.80,55.60"/>
        <lane id=":B0B1.50.00_0_2" index="2" speed="13.89" length="8.27" shape="104.80,47.60 104.30,50.06 103.20,51.60 102.10,53.14 101.60,55.60"/>
    </edge>
    <edge id=":B0C0.50.00_0" function="internal">
        <lane id=":B0C0.50.00_0_0" index="0" speed="13.89" length="8.40" shape="147.60,-1.60 155.60,-1.60"/>
        <lane id=":B0C0.50.00_0_1" index="1" speed="13.89" length="8.40" shape="147.60,-1.60 150.06,-1.10 151.60,0.00 153.14,1.10 155.60,1.60"/>
    </edge>
    <edge id=":B1_0" function="internal">
        <lane id=":B1_0_0" index="0" speed="6.51" length="9.03" shape="95.20,113.60 94.85,111.15 93.80,109.40 92.05,108.35 89.60,108.00"/>
    </edge>
    <edge id=":B1_1" function="internal">
        <lane id=":B1_1_0" index="0" speed="13.89" length="24.00" shape="95.20,113.60 95.20,89.60"/>
        <lane id=":B1_1_1" index="1" speed="13.89" length="24.00" shape="98.40,113.60 98.40,89.60"/>
    </edge>
    <edge id=":B1_3" function="internal">
        <lane id=":B1_3_0" index="0" speed="9.84" length="8.68" shape="101.60,113.60 102.35,106.95 103.20,105.16"/>
    </edge>
    <edge id=":B1_16" function="internal">
        <lane id=":B1_16_0" index="0" speed="9.84" length="13.32" shape="103.20,105.16 104.60,102.20 108.35,99.35 113.60,98.40"/>
    </edge>
    <edge id=":B1_4" function="internal">
        <lane id=":B1_4_0" index="0" speed="7.33" length="11.73" shape="113.60,104.80 111.15,105.35 109.40,107.00 108.35,109.75 108.00,113.60"/>
    </edge>
    <edge id=":B1_5" function="internal">
        <lane id=":B1_5_0" index="0" speed="13.89" length="24.26" shape="113.60,104.80 107.04,105.30 101.60,106.40 96.16,107.50 89.60,108.00"/>
        <lane id=":B1_5_1" index="1" speed="13.89" length="24.26" shape="113.60,101.60 107.04,102.10 101.60,103.20 96.16,104.30 89.60,104.80"/>
    </edge>
    <edge id=":B1_7" function="internal">
        <lane id=":B1_7_0" index="0" speed="9.84" length="8.68" shape="113.60,101.60 106.95,100.85 105.16,100.00"/>
    </edge>
    <edge id=":B1_17" function="internal">
        <lane id=":B1_17_0" index="0" speed="9.84" length="13.32" shape="105.16,100.00 102.20,98.60 99.35,94.85 98.40,89.60"/>
    </edge>
    <edge id=":B1_8" function="internal">
        <lane id=":B1_8_0" index="0" speed="6.51" length="9.03" shape="108.00,89.60 108.35,92.05 109.40,93.80 111.15,94.85 113.60,95.20"/>
    </edge>
    <edge id=":B1_9" function="internal">
        <lane id=":B1_9_0" index="0" speed="13.89" length="24.00" shape="108.00,89.60 108.00,113.60"/>
        <lane id=":B1_9_1" index="1" speed="13.89" length="24.00" shape="104.80,89.60 104.80,113.60"/>
    </edge>
    <edge id=":B1_11" function="internal">
        <lane id=":B1_11_0" index="0" speed="9.84" length="8.68" shape="101.60,89.60 100.85,96.25 100.00,98.04"/>
    </edge>
    <edge id=":B1_18" function="internal">
        <lane id=":B1_18_0" index="0" speed="9.84" length="13.32" shape="100.00,98.04 98.60,101.00 94.85,103.85 89.60,104.80"/>
    </edge>
    <edge id=":B1_12" function="internal">
        <lane id=":B1_12_0" index="0" speed="6.51" length="9.03" shape="89.60,95.20 92.05,94.85 93.80,93.80 94.85,92.05 95.20,89.60"/>
    </edge>
    <edge id=":B1_13" function="internal">
        <lane id=":B1_13_0" index="0" speed="13.89" length="24.00" shape="89.60,95.20 113.60,95.20"/>
        <lane id=":B1_13_1" index="1" speed="13.89" length="24.00" shape="89.60,98.40 113.60,98.40"/>
    </edge>
    <edge id=":B1_15" function="internal">
        <lane id=":B1_15_0" index="0" speed="9.84" length="7.18" shape="89.60,101.60 96.25,102.35 96.69,102.56"/>
    </edge>
    <edge id=":B1_19" function="internal">
        <lane id=":B1_19_0" index="0" speed="9.84" length="14.81" shape="96.69,102.56 101.00,104.60 103.85,108.35 104.80,113.60"/>
    </edge>
    <edge id=":B1A1.50.00_0" function="internal">
        <lane id=":B1A1.50.00_0_0" index="0" speed="13.89" length="8.27" shape="55.60,108.00 47.60,108.00"/>
        <lane id=":B1A1.50.00_0_1" index="1" speed="13.89" length="8.27" shape="55.60,104.80 47.60,104.80"/>
        <lane id=":B1A1.50.00_0_2" index="2" speed="13.89" length="8.27" shape="55.60,104.80 53.14,104.30 51.60,103.20 50.06,102.10 47.60,101.60"/>
    </edge>
    <edge id=":B1B0.50.00_0" function="internal">
        <lane id=":B1B0.50.00_0_0" index="0" speed="13.89" length="8.27" shape="95.20,55.60 95.20,47.60"/>
        <lane id=":B1B0.50.00_0_1" index="1" speed="13.89" length="8.27" shape="98.40,55.60 98.40,47.60"/>
        <lane id=":B1B0.50.00_0_2" index="2" speed="13.89" length="8.27" shape="98.40,55.60 98.90,53.14 100.00,51.60 101.10,50.06 101.60,47.60"/>
    </edge>
    <edge id=":B1B2.50.00_0" function="internal">
        <lane id=":B1B2.50.00_0_0" index="0" speed="13.89" length="8.27" shape="108.00,147.60 108.00,155.60"/>
        <lane id=":B1B2.50.00_0_1" index="1" speed="13.89" length="8.27" shape="104.80,147.60 104.80,155.60"/>
        <lane id=":B1B2.50.00_0_2" index="2" speed="13.89" length="8.27" shape="104.80,147.60 104.30,150.06 103.20,151.60 102.10,153.14 101.60,155.60"/>
    </edge>
    <edge id=":B1C1.50.00_0" function="internal">
        <lane id=":B1C1.50.00_0_0" index="0" speed="13.89" length="8.27" shape="147.60,95.20 155.60,95.20"/>
        <lane id=":B1C1.50.00_0_1" index="1" speed="13.89" length="8.27" shape="147.60,98.40 155.60,98.40"/>
        <lane id=":B1C1.50.00_0_2" index="2" speed="13.89" length="8.27" shape="147.60,98.40 150.06,98.90 151.60,100.00 153.14,101.10 155.60,101.60"/>
    </edge>
    <edge id=":B2_0" function="internal">
        <lane id=":B2_0_0" index="0" speed="6.51" length="9.03" shape="95.20,213.60 94.85,211.15 93.80,209.40 92.05,208.35 89.60,208.00"/>
    </edge>
    <edge id=":B2_1" function="internal">
        <lane id=":B2_1_0" index="0" speed="13.89" length="24.00" shape="95.20,213.60 95.20,189.60"/>
        <lane id=":B2_1_1" index="1" speed="13.89" length="24.00" shape="98.40,213.60 98.40,189.60"/>
    </edge>
    <edge id=":B2_3" function="internal">
        <lane id=":B2_3_0" index="0" speed="9.84" length="8.68" shape="101.60,213.60 102.35,206.95 103.20,205.16"/>
    </edge>
    <edge id=":B2_14" function="internal">
        <lane id=":B2_14_0" index="0" speed="9.84" length="13.32" shape="103.20,205.16 104.60,202.20 108.35,199.35 113.60,198.40"/>
    </edge>
    <edge id=":B2_4" function="internal">
        <lane id=":B2_4_0" index="0" speed="8.00" length="14.19" shape="113.60,204.80 109.75,205.35 107.00,207.00 105.35,209.75 104.80,213.60"/>
    </edge>
    <edge id=":B2_5" function="internal">
        <lane id=":B2_5_0" index="0" speed="13.89" length="24.26" shape="113.60,204.80 107.04,205.30 101.60,206.40 96.16,207.50 89.60,208.00"/>
        <lane id=":B2_5_1" index="1" speed="13.89" length="24.26" shape="113.60,201.60 107.04,202.10 101.60,203.20 96.16,204.30 89.60,204.80"/>
    </edge>
    <edge id=":B2_7" function="internal">
        <lane id=":B2_7_0" index="0" speed="9.84" length="8.68" shape="113.60,201.60 106.95,200.85 105.16,200.00"/>
    </edge>
    <edge id=":B2_15" function="internal">
        <lane id=":B2_15_0" index="0" speed="9.84" length="13.32" shape="105.16,200.00 102.20,198.60 99.35,194.85 98.40,189.60"/>
    </edge>
    <edge id=":B2_8" function="internal">
        <lane id=":B2_8_0" index="0" speed="7.33" length="11.73" shape="108.00,189.60 108.35,193.45 109.40,196.20 111.15,197.85 113.60,198.40"/>
    </edge>
    <edge id=":B2_9" function="internal">
        <lane id=":B2_9_0" index="0" speed="13.89" length="24.00" shape="104.80,189.60 104.80,213.60"/>
    </edge>
    <edge id=":B2_10" function="internal">
        <lane id=":B2_10_0" index="0" speed="9.84" length="8.68" shape="101.60,189.60 100.85,196.25 100.00,198.04"/>
    </edge>
    <edge id=":B2_16" function="internal">
        <lane id=":B2_16_0" index="0" speed="9.84" length="13.32" shape="100.00,198.04 98.60,201.00 94.85,203.85 89.60,204.80"/>
    </edge>
    <edge id=":B2_11" function="internal">
        <lane id=":B2_11_0" index="0" speed="6.51" length="9.03" shape="89.60,195.20 92.05,194.85 93.80,193.80 94.85,192.05 95.20,189.60"/>
    </edge>
    <edge id=":B2_12" function="internal">
        <lane id=":B2_12_0" index="0" speed="13.89" length="24.00" shape="89.60,198.40 113.60,198.40"/>
    </edge>
    <edge id=":B2_13" function="internal">
        <lane id=":B2_13_0" index="0" speed="9.84" length="7.18" shape="89.60,201.60 96.25,202.35 96.69,202.56"/>
    </edge>
    <edge id=":B2_17" function="internal">
        <lane id=":B2_17_0" index="0" speed="9.84" length="14.81" shape="96.69,202.56 101.00,204.60 103.85,208.35 104.80,213.60"/>
    </edge>
    <edge id=":B2A2.50.00_0" function="internal">
        <lane id=":B2A2.50.00_0_0" index="0" speed="13.89" length="8.27" shape="55.60,208.00 47.60,208.00"/>
        <lane id=":B2A2.50.00_0_1" index="1" speed="13.89" length="8.27" shape="55.60,204.80 47.60,204.80"/>
        <lane id=":B2A2.50.00_0_2" index="2" speed="13.89" length="8.27" shape="55.60,204.80 53.14,204.30 51.60,203.20 50.06,202.10 47.60,201.60"/>
    </edge>
    <edge id=":B2B1.50.00_0" function="internal">
        <lane id=":B2B1.50.00_0_0" index="0" speed="13.89" length="8.27" shape="95.20,155.60 95.20,147.60"/>
        <lane id=":B2B1.50.00_0_1" index="1" speed="13.89" length="8.27" shape="98.40,155.60 98.40,147.60"/>
        <lane id=":B2B1.50.00_0_2" index="2" speed="13.89" length="8.27" shape="98.40,155.60 98.90,153.14 100.00,151.60 101.10,150.06 101.60,147.60"/>
    </edge>
    <edge id=":B2B3.50.00_0" function="internal">
        <lane id=":B2B3.50.00_0_0" index="0" speed="13.89" length="8.40" shape="104.80,247.60 104.80,255.60"/>
        <lane id=":B2B3.50.00_0_1" index="1" speed="13.89" length="8.40" shape="104.80,247.60 104.30,250.06 103.20,251.60 102.10,253.14 101.60,255.60"/>
    </edge>
    <edge id=":B2C2.50.00_0" function="internal">
        <lane id=":B2C2.50.00_0_0" index="0" speed="13.89" length="8.40" shape="147.60,198.40 155.60,198.40"/>
        <lane id=":B2C2.50.00_0_1" index="1" speed="13.89" length="8.40" shape="147.60,198.40 150.06,198.90 151.60,200.00 153.14,201.10 155.60,201.60"/>
    </edge>
    <edge id=":B3_0" function="internal">
        <lane id=":B3_0_0" index="0" speed="7.33" length="11.73" shape="98.40,310.40 97.85,307.95 96.20,306.20 93.45,305.15 89.60,304.80"/>
    </edge>
    <edge id=":B3_1" function="internal">
        <lane id=":B3_1_0" index="0" speed="13.89" length="17.98" shape="98.40,310.40 97.90,305.13 96.80,301.60 95.70,298.07 95.20,292.80"/>
        <lane id=":B3_1_1" index="1" speed="13.89" length="17.98" shape="101.60,310.40 101.10,305.13 100.00,301.60 98.90,298.07 98.40,292.80"/>
    </edge>
    <edge id=":B3_3" function="internal">
        <lane id=":B3_3_0" index="0" speed="9.26" length="5.66" shape="101.60,310.40 102.35,305.15 102.53,304.84"/>
    </edge>
    <edge id=":B3_4" function="internal">
        <lane id=":B3_4_0" index="0" speed="3.65" length="2.17" shape="101.60,310.40 102.40,309.20 103.05,308.88"/>
    </edge>
    <edge id=":B3_18" function="internal">
        <lane id=":B3_18_0" index="0" speed="9.26" length="13.69" shape="102.53,304.84 104.60,301.40 108.35,299.15 113.60,298.40"/>
    </edge>
    <edge id=":B3_19" function="internal">
        <lane id=":B3_19_0" index="0" speed="3.65" length="2.51" shape="103.05,308.88 103.20,308.80 104.00,309.20 104.80,310.40"/>
    </edge>
    <edge id=":B3_5" function="internal">
        <lane id=":B3_5_0" index="0" speed="6.51" length="9.03" shape="113.60,304.80 111.15,305.15 109.40,306.20 108.35,307.95 108.00,310.40"/>
    </edge>
    <edge id=":B3_6" function="internal">
        <lane id=":B3_6_0" index="0" speed="13.89" length="24.00" shape="113.60,304.80 89.60,304.80"/>
    </edge>
    <edge id=":B3_7" function="internal">
        <lane id=":B3_7_0" index="0" speed="9.32" length="19.63" shape="113.60,301.60 106.95,301.05 102.20,299.40 99.35,296.65 98.40,292.80"/>
    </edge>
    <edge id=":B3_8" function="internal">
        <lane id=":B3_8_0" index="0" speed="3.65" length="4.67" shape="113.60,301.60 112.40,300.80 112.00,300.00 112.40,299.20 113.60,298.40"/>
    </edge>
    <edge id=":B3_9" function="internal">
        <lane id=":B3_9_0" index="0" speed="7.33" length="11.73" shape="104.80,292.80 105.35,295.25 107.00,297.00 109.75,298.05 113.60,298.40"/>
    </edge>
    <edge id=":B3_10" function="internal">
        <lane id=":B3_10_0" index="0" speed="13.89" length="17.98" shape="104.80,292.80 105.30,298.07 106.40,301.60 107.50,305.13 108.00,310.40"/>