<?xml version="1.0" encoding="UTF-8"?>

<!-- generated on 05/02/19 10:00:32 by Eclipse SUMO netgenerate Version v1_0_1+0593-c54b143026
<configuration xmlns:xsi="http://www.w3.org/2001/XMLSchema-instance" xsi:noNamespaceSchemaLocation="http://sumo.dlr.de/xsd/netgenerateConfiguration.xsd">

    <random_network>
        <rand value="true"/>
        <rand.iterations value="100"/>
        <rand.max-distance value="250"/>
        <rand.min-angle value="60"/>
        <rand.connectivity value="0.3"/>
        <rand.grid value="true"/>
    </random_network>

    <output>
        <output-file value="random_grid.net.xml"/>
    </output>

    <processing>
        <perturb-x value="5"/>
        <perturb-y value="5"/>
    </processing>

</configuration>
-->

<net version="1.3" junctionCornerDetail="5" limitTurnSpeed="5.50" xmlns:xsi="http://www.w3.org/2001/XMLSchema-instance" xsi:noNamespaceSchemaLocation="http://sumo.dlr.de/xsd/net_file.xsd">

    <location netOffset="805.65,802.21" convBoundary="0.00,0.00,1511.01,1499.45" origBoundary="-805.65,-802.21,705.36,697.24" projParameter="!"/>

    <edge id=":1_0" function="internal">
        <lane id=":1_0_0" index="0" speed="6.44" length="9.03" shape="801.25,809.78 800.88,807.32 799.81,805.59 798.04,804.60 795.56,804.35"/>
    </edge>
    <edge id=":1_1" function="internal">
        <lane id=":1_1_0" index="0" speed="13.89" length="14.91" shape="801.25,809.78 801.32,794.87"/>
    </edge>
    <edge id=":1_2" function="internal">
        <lane id=":1_2_0" index="0" speed="8.40" length="6.12" shape="801.25,809.78 801.78,805.89 802.88,803.99"/>
    </edge>
    <edge id=":1_3" function="internal">
        <lane id=":1_3_0" index="0" speed="3.65" length="2.34" shape="801.25,809.78 802.04,808.57 802.84,808.17"/>
    </edge>
    <edge id=":1_16" function="internal">
        <lane id=":1_16_0" index="0" speed="8.40" length="8.58" shape="802.88,803.99 803.45,802.99 806.26,801.08 810.19,800.17"/>
    </edge>
    <edge id=":1_17" function="internal">
        <lane id=":1_17_0" index="0" speed="3.65" length="2.34" shape="802.84,808.17 803.64,808.56 804.45,809.76"/>
    </edge>
    <edge id=":1_4" function="internal">
        <lane id=":1_4_0" index="0" speed="6.98" length="9.86" shape="810.49,803.35 807.83,803.97 805.94,805.24 804.81,807.17 804.45,809.76"/>
    </edge>
    <edge id=":1_5" function="internal">
        <lane id=":1_5_0" index="0" speed="13.89" length="14.96" shape="810.49,803.35 795.56,804.35"/>
    </edge>
    <edge id=":1_6" function="internal">
        <lane id=":1_6_0" index="0" speed="7.82" length="14.63" shape="810.49,803.35 806.42,803.15 803.54,801.67 801.84,798.91 801.32,794.87"/>
    </edge>
    <edge id=":1_7" function="internal">
        <lane id=":1_7_0" index="0" speed="3.65" length="4.67" shape="810.49,803.35 809.22,802.67 808.74,801.91 809.07,801.07 810.19,800.17"/>
    </edge>
    <edge id=":1_8" function="internal">
        <lane id=":1_8_0" index="0" speed="6.28" length="9.04" shape="804.52,794.92 804.84,797.42 805.89,799.12 807.67,800.04 810.19,800.17"/>
    </edge>
    <edge id=":1_9" function="internal">
        <lane id=":1_9_0" index="0" speed="13.89" length="14.84" shape="804.52,794.92 804.45,809.76"/>
    </edge>
    <edge id=":1_10" function="internal">
        <lane id=":1_10_0" index="0" speed="8.29" length="6.05" shape="804.52,794.92 803.91,798.91 802.90,800.64"/>
    </edge>
    <edge id=":1_11" function="internal">
        <lane id=":1_11_0" index="0" speed="3.65" length="2.34" shape="804.52,794.92 803.70,796.11 802.90,796.49"/>
    </edge>
    <edge id=":1_18" function="internal">
        <lane id=":1_18_0" index="0" speed="8.29" length="8.61" shape="802.90,800.64 802.21,801.82 799.43,803.63 795.56,804.35"/>
    </edge>
    <edge id=":1_19" function="internal">
        <lane id=":1_19_0" index="0" speed="3.65" length="2.34" shape="802.90,796.49 802.10,796.08 801.32,794.87"/>
    </edge>
    <edge id=":1_12" function="internal">
        <lane id=":1_12_0" index="0" speed="6.85" length="9.70" shape="795.44,801.15 797.98,800.67 799.80,799.47 800.92,797.53 801.32,794.87"/>
    </edge>
    <edge id=":1_13" function="internal">
        <lane id=":1_13_0" index="0" speed="13.89" length="14.78" shape="795.44,801.15 810.19,800.17"/>
    </edge>
    <edge id=":1_14" function="internal">
        <lane id=":1_14_0" index="0" speed="7.94" length="14.32" shape="795.44,801.15 799.36,801.56 802.17,803.13 803.86,805.86 804.45,809.76"/>
    </edge>
    <edge id=":1_15" function="internal">
        <lane id=":1_15_0" index="0" speed="3.65" length="4.67" shape="795.44,801.15 796.67,801.90 797.10,802.69 796.73,803.50 795.56,804.35"/>
    </edge>
    <edge id=":10_0" function="internal">
        <lane id=":10_0_0" index="0" speed="7.09" length="9.91" shape="719.00,807.33 716.34,807.80 714.38,808.97 713.10,810.85 712.52,813.43"/>
    </edge>
    <edge id=":10_1" function="internal">
        <lane id=":10_1_0" index="0" speed="13.89" length="14.86" shape="719.00,807.33 704.14,807.27"/>
    </edge>
    <edge id=":10_2" function="internal">
        <lane id=":10_2_0" index="0" speed="7.88" length="14.46" shape="719.00,807.33 715.02,806.91 712.22,805.31 710.59,802.52 710.14,798.54"/>
    </edge>
    <edge id=":10_3" function="internal">
        <lane id=":10_3_0" index="0" speed="3.65" length="4.67" shape="719.00,807.33 717.77,806.57 717.34,805.79 717.71,804.98 718.88,804.13"/>
    </edge>
    <edge id=":10_4" function="internal">
        <lane id=":10_4_0" index="0" speed="6.36" length="9.04" shape="713.34,798.64 713.62,801.13 714.64,802.87 716.39,803.87 718.88,804.13"/>
    </edge>
    <edge id=":10_5" function="internal">
        <lane id=":10_5_0" index="0" speed="13.89" length="14.82" shape="713.34,798.64 712.52,813.43"/>
    </edge>
    <edge id=":10_6" function="internal">
        <lane id=":10_6_0" index="0" speed="8.02" length="6.31" shape="713.34,798.64 712.66,802.57 711.41,804.53"/>
    </edge>
    <edge id=":10_7" function="internal">
        <lane id=":10_7_0" index="0" speed="3.65" length="2.34" shape="713.34,798.64 712.51,799.82 711.69,800.19"/>
    </edge>
    <edge id=":10_16" function="internal">
        <lane id=":10_16_0" index="0" speed="8.02" length="8.13" shape="711.41,804.53 710.90,805.32 708.06,806.89 704.14,807.27"/>
    </edge>
    <edge id=":10_17" function="internal">
        <lane id=":10_17_0" index="0" speed="3.65" length="2.34" shape="711.69,800.19 710.91,799.77 710.14,798.54"/>
    </edge>
    <edge id=":10_8" function="internal">
        <lane id=":10_8_0" index="0" speed="6.53" length="9.22" shape="704.29,804.07 706.78,803.83 708.59,802.82 709.71,801.06 710.14,798.54"/>
    </edge>
    <edge id=":10_9" function="internal">
        <lane id=":10_9_0" index="0" speed="13.89" length="14.59" shape="704.29,804.07 718.88,804.13"/>
    </edge>
    <edge id=":10_10" function="internal">
        <lane id=":10_10_0" index="0" speed="7.94" length="14.32" shape="704.29,804.07 708.16,804.82 710.82,806.63 712.28,809.50 712.52,813.43"/>
    </edge>
    <edge id=":10_11" function="internal">
        <lane id=":10_11_0" index="0" speed="3.65" length="4.67" shape="704.29,804.07 705.45,804.93 705.81,805.75 705.38,806.53 704.14,807.27"/>
    </edge>
    <edge id=":10_12" function="internal">
        <lane id=":10_12_0" index="0" speed="6.43" length="9.03" shape="709.33,813.17 709.18,810.69 708.26,808.88 706.58,807.74 704.14,807.27"/>
    </edge>
    <edge id=":10_13" function="internal">
        <lane id=":10_13_0" index="0" speed="13.89" length="14.65" shape="709.33,813.17 710.14,798.54"/>
    </edge>
    <edge id=":10_14" function="internal">
        <lane id=":10_14_0" index="0" speed="8.49" length="5.78" shape="709.33,813.17 710.19,809.35 711.23,807.81"/>
    </edge>
    <edge id=":10_15" function="internal">
        <lane id=":10_15_0" index="0" speed="3.65" length="2.34" shape="709.33,813.17 710.22,812.04 711.05,811.71"/>
    </edge>
    <edge id=":10_18" function="internal">
        <lane id=":10_18_0" index="0" speed="8.49" length="8.86" shape="711.23,807.81 712.07,806.56 714.97,804.82 718.88,804.13"/>
    </edge>
    <edge id=":10_19" function="internal">
        <lane id=":10_19_0" index="0" speed="3.65" length="2.34" shape="711.05,811.71 711.82,812.17 712.52,813.43"/>
    </edge>
    <edge id=":1037_0" function="internal">
        <lane id=":1037_0_0" index="0" speed="3.65" length="4.67" shape="510.56,903.74 509.81,904.98 509.03,905.41 508.21,905.05 507.36,903.89"/>
    </edge>
    <edge id=":1143_0" function="internal">
        <lane id=":1143_0_0" index="0" speed="6.69" length="9.38" shape="517.83,1212.12 515.21,1212.53 513.33,1213.62 512.20,1215.38 511.80,1217.82"/>
    </edge>
    <edge id=":1143_1" function="internal">
        <lane id=":1143_1_0" index="0" speed="7.83" length="14.58" shape="517.83,1212.12 513.80,1211.64 511.03,1209.97 509.50,1207.11 509.23,1203.07"/>
    </edge>
    <edge id=":1143_2" function="internal">
        <lane id=":1143_2_0" index="0" speed="3.65" length="4.67" shape="517.83,1212.12 516.61,1211.35 516.19,1210.56 516.57,1209.75 517.75,1208.92"/>
    </edge>
    <edge id=":1143_3" function="internal">
        <lane id=":1143_3_0" index="0" speed="6.30" length="9.04" shape="512.42,1203.31 512.59,1205.82 513.54,1207.59 515.26,1208.63 517.75,1208.92"/>
    </edge>
    <edge id=":1143_4" function="internal">
        <lane id=":1143_4_0" index="0" speed="13.89" length="14.52" shape="512.42,1203.31 511.80,1217.82"/>
    </edge>
    <edge id=":1143_5" function="internal">
        <lane id=":1143_5_0" index="0" speed="3.65" length="2.34" shape="512.42,1203.31 511.53,1204.45 510.70,1204.79"/>
    </edge>
    <edge id=":1143_9" function="internal">
        <lane id=":1143_9_0" index="0" speed="3.65" length="2.34" shape="510.70,1204.79 509.94,1204.33 509.23,1203.07"/>
    </edge>
    <edge id=":1143_6" function="internal">
        <lane id=":1143_6_0" index="0" speed="13.89" length="14.74" shape="508.60,1217.79 509.23,1203.07"/>
    </edge>
    <edge id=":1143_7" function="internal">
        <lane id=":1143_7_0" index="0" speed="8.16" length="6.19" shape="508.60,1217.79 509.20,1213.99 510.45,1212.01"/>
    </edge>
    <edge id=":1143_8" function="internal">
        <lane id=":1143_8_0" index="0" speed="3.65" length="2.34" shape="508.60,1217.79 509.41,1216.60 510.21,1216.20"/>
    </edge>
    <edge id=":1143_10" function="internal">
        <lane id=":1143_10_0" index="0" speed="8.16" length="8.23" shape="510.45,1212.01 510.92,1211.25 513.77,1209.56 517.75,1208.92"/>
    </edge>
    <edge id=":1143_11" function="internal">
        <lane id=":1143_11_0" index="0" speed="3.65" length="2.34" shape="510.21,1216.20 511.01,1216.61 511.80,1217.82"/>
    </edge>
    <edge id=":1146_0" function="internal">
        <lane id=":1146_0_0" index="0" speed="3.65" length="4.67" shape="611.80,1000.04 612.72,998.93 613.55,998.61 614.31,999.09 614.99,1000.36"/>
    </edge>
    <edge id=":1174_0" function="internal">
        <lane id=":1174_0_0" index="0" speed="6.90" length="10.26" shape="526.76,1107.38 523.65,1107.51 521.36,1108.40 519.91,1110.05 519.28,1112.46"/>
    </edge>
    <edge id=":1174_1" function="internal">
        <lane id=":1174_1_0" index="0" speed="7.50" length="15.85" shape="526.76,1107.38 522.25,1106.42 519.70,1104.31 519.11,1101.06 520.47,1096.65"/>
    </edge>
    <edge id=":1174_2" function="internal">
        <lane id=":1174_2_0" index="0" speed="3.65" length="4.67" shape="526.76,1107.38 525.62,1106.50 525.28,1105.68 525.73,1104.91 526.99,1104.19"/>
    </edge>
    <edge id=":1174_3" function="internal">
        <lane id=":1174_3_0" index="0" speed="5.86" length="9.12" shape="523.37,1098.01 522.58,1100.55 522.92,1102.42 524.39,1103.64 526.99,1104.19"/>
    </edge>
    <edge id=":1174_4" function="internal">
        <lane id=":1174_4_0" index="0" speed="13.89" length="15.09" shape="523.37,1098.01 521.88,1101.48 520.67,1105.06 519.78,1108.74 519.28,1112.46"/>
    </edge>
    <edge id=":1174_5" function="internal">
        <lane id=":1174_5_0" index="0" speed="3.65" length="2.34" shape="523.37,1098.01 522.13,1098.76 521.24,1098.78"/>
    </edge>
    <edge id=":1174_9" function="internal">
        <lane id=":1174_9_0" index="0" speed="3.65" length="2.34" shape="521.24,1098.78 520.68,1098.08 520.47,1096.65"/>
    </edge>
    <edge id=":1174_6" function="internal">
        <lane id=":1174_6_0" index="0" speed="13.89" length="16.25" shape="516.09,1112.22 516.63,1108.32 517.62,1104.26 518.94,1100.29 520.47,1096.65"/>
    </edge>
    <edge id=":1174_7" function="internal">
        <lane id=":1174_7_0" index="0" speed="8.33" length="6.56" shape="516.09,1112.22 517.02,1108.44 518.70,1106.38"/>
    </edge>
    <edge id=":1174_8" function="internal">
        <lane id=":1174_8_0" index="0" speed="3.65" length="2.34" shape="516.09,1112.22 516.98,1111.09 517.80,1110.75"/>
    </edge>
    <edge id=":1174_10" function="internal">
        <lane id=":1174_10_0" index="0" speed="8.33" length="8.84" shape="518.70,1106.38 519.14,1105.84 522.47,1104.42 526.99,1104.19"/>
    </edge>
    <edge id=":1174_11" function="internal">
        <lane id=":1174_11_0" index="0" speed="3.65" length="2.34" shape="517.80,1110.75 518.57,1111.21 519.28,1112.46"/>
    </edge>
    <edge id=":1280_0" function="internal">
        <lane id=":1280_0_0" index="0" speed="13.89" length="14.37" shape="803.31,1315.18 803.01,1300.81"/>
    </edge>
    <edge id=":1280_1" function="internal">
        <lane id=":1280_1_0" index="0" speed="8.00" length="5.90" shape="803.31,1315.18 803.79,1311.32 804.79,1309.58"/>
    </edge>
    <edge id=":1280_2" function="internal">
        <lane id=":1280_2_0" index="0" speed="3.65" length="2.34" shape="803.31,1315.18 804.08,1313.97 804.88,1313.55"/>
    </edge>
    <edge id=":1280_9" function="internal">
        <lane id=":1280_9_0" index="0" speed="8.00" length="8.29" shape="804.79,1309.58 805.39,1308.54 808.11,1306.85 811.94,1306.23"/>
    </edge>
    <edge id=":1280_10" function="internal">
        <lane id=":1280_10_0" index="0" speed="3.65" length="2.34" shape="804.88,1313.55 805.68,1313.94 806.50,1315.12"/>
    </edge>
    <edge id=":1280_3" function="internal">
        <lane id=":1280_3_0" index="0" speed="6.51" length="9.03" shape="812.00,1309.43 809.56,1309.82 807.83,1310.90 806.81,1312.67 806.50,1315.12"/>
    </edge>
    <edge id=":1280_4" function="internal">
        <lane id=":1280_4_0" index="0" speed="8.01" length="14.18" shape="812.00,1309.43 808.15,1308.95 805.36,1307.35 803.65,1304.64 803.01,1300.81"/>
    </edge>
    <edge id=":1280_5" function="internal">
        <lane id=":1280_5_0" index="0" speed="3.65" length="4.67" shape="812.00,1309.43 810.79,1308.65 810.37,1307.86 810.76,1307.05 811.94,1306.23"/>
    </edge>
    <edge id=":1280_6" function="internal">
        <lane id=":1280_6_0" index="0" speed="6.52" length="9.04" shape="806.21,1300.74 806.62,1303.18 807.71,1304.91 809.49,1305.92 811.94,1306.23"/>
    </edge>
    <edge id=":1280_7" function="internal">
        <lane id=":1280_7_0" index="0" speed="13.89" length="14.39" shape="806.21,1300.74 806.50,1315.12"/>
    </edge>
    <edge id=":1280_8" function="internal">
        <lane id=":1280_8_0" index="0" speed="3.65" length="2.34" shape="806.21,1300.74 805.44,1301.96 804.65,1302.37"/>
    </edge>
    <edge id=":1280_11" function="internal">
        <lane id=":1280_11_0" index="0" speed="3.65" length="2.34" shape="804.65,1302.37 803.84,1301.99 803.01,1300.81"/>
    </edge>
    <edge id=":1388_0" function="internal">
        <lane id=":1388_0_0" index="0" speed="3.65" length="4.67" shape="898.53,403.51 899.37,402.33 900.19,401.96 900.97,402.39 901.73,403.62"/>
    </edge>
    <edge id=":1391_0" function="internal">
        <lane id=":1391_0_0" index="0" speed="3.65" length="4.67" shape="810.71,3.04 811.55,1.87 812.37,1.51 813.15,1.94 813.90,3.17"/>
    </edge>
    <edge id=":1393_0" function="internal">
        <lane id=":1393_0_0" index="0" speed="6.08" length="7.60" shape="903.26,195.12 902.86,197.15 901.90,198.59 900.40,199.43 898.33,199.66"/>
    </edge>
    <edge id=":1393_1" function="internal">
        <lane id=":1393_1_0" index="0" speed="3.91" length="2.53" shape="898.42,196.46 899.11,196.38 899.61,196.11 899.93,195.63 900.06,194.95"/>
    </edge>
    <edge id=":14_0" function="internal">
        <lane id=":14_0_0" index="0" speed="6.77" length="9.35" shape="811.66,1010.66 809.09,1011.16 807.25,1012.30 806.13,1014.08 805.74,1016.50"/>
    </edge>
    <edge id=":14_1" function="internal">
        <lane id=":14_1_0" index="0" speed="7.91" length="14.40" shape="811.66,1010.66 807.70,1010.33 804.86,1008.80 803.15,1006.07 802.55,1002.14"/>
    </edge>
    <edge id=":14_2" function="internal">
        <lane id=":14_2_0" index="0" speed="3.65" length="4.67" shape="811.66,1010.66 810.42,1009.93 809.97,1009.16 810.32,1008.33 811.47,1007.46"/>
    </edge>
    <edge id=":14_3" function="internal">
        <lane id=":14_3_0" index="0" speed="6.39" length="9.04" shape="805.75,1002.12 806.13,1004.58 807.20,1006.30 808.98,1007.26 811.47,1007.46"/>
    </edge>
    <edge id=":14_4" function="internal">
        <lane id=":14_4_0" index="0" speed="13.89" length="14.39" shape="805.75,1002.12 805.74,1016.50"/>
    </edge>
    <edge id=":14_5" function="internal">
        <lane id=":14_5_0" index="0" speed="3.65" length="2.34" shape="805.75,1002.12 804.96,1003.32 804.16,1003.73"/>
    </edge>
    <edge id=":14_9" function="internal">
        <lane id=":14_9_0" index="0" speed="3.65" length="2.34" shape="804.16,1003.73 803.36,1003.33 802.55,1002.14"/>
    </edge>
    <edge id=":14_6" function="internal">
        <lane id=":14_6_0" index="0" speed="13.89" length="14.34" shape="802.54,1016.48 802.55,1002.14"/>
    </edge>
    <edge id=":14_7" function="internal">
        <lane id=":14_7_0" index="0" speed="8.22" length="5.74" shape="802.54,1016.48 803.13,1012.73 804.15,1011.07"/>
    </edge>
    <edge id=":14_8" function="internal">
        <lane id=":14_8_0" index="0" speed="3.65" length="2.34" shape="802.54,1016.48 803.35,1015.28 804.16,1014.89"/>
    </edge>
    <edge id=":14_10" function="internal">
        <lane id=":14_10_0" index="0" speed="8.22" length="8.52" shape="804.15,1011.07 804.81,1009.98 807.59,1008.23 811.47,1007.46"/>
    </edge>
    <edge id=":14_11" function="internal">
        <lane id=":14_11_0" index="0" speed="3.65" length="2.34" shape="804.16,1014.89 804.95,1015.30 805.74,1016.50"/>
    </edge>
    <edge id=":1403_0" function="internal">
        <lane id=":1403_0_0" index="0" speed="6.28" length="12.26" shape="1002.04,200.22 1002.15,196.46 1003.38,194.44 1005.73,194.15 1009.20,195.59"/>
    </edge>
    <edge id=":1403_1" function="internal">
        <lane id=":1403_1_0" index="0" speed="4.01" length="4.09" shape="1007.61,198.36 1006.46,197.88 1005.67,197.98 1005.26,198.66 1005.23,199.91"/>
    </edge>
    <edge id=":1423_0" function="internal">
        <lane id=":1423_0_0" index="0" speed="3.65" length="4.67" shape="1014.68,500.43 1013.88,501.63 1013.08,502.02 1012.28,501.62 1011.48,500.42"/>
    </edge>
    <edge id=":1425_0" function="internal">
        <lane id=":1425_0_0" index="0" speed="13.89" length="13.97" shape="1316.73,596.06 1313.15,595.90 1309.75,595.84 1306.36,595.89 1302.77,596.03"/>
    </edge>
    <edge id=":1425_1" function="internal">
        <lane id=":1425_1_0" index="0" speed="8.81" length="5.45" shape="1316.73,596.06 1313.23,595.31 1311.67,594.28"/>
    </edge>
    <edge id=":1425_2" function="internal">
        <lane id=":1425_2_0" index="0" speed="3.65" length="2.34" shape="1316.73,596.06 1315.58,595.19 1315.23,594.37"/>
    </edge>
    <edge id=":1425_9" function="internal">
        <lane id=":1425_9_0" index="0" speed="8.81" length="8.84" shape="1311.67,594.28 1310.52,593.52 1308.58,590.69 1307.42,586.83"/>
    </edge>
    <edge id=":1425_10" function="internal">
        <lane id=":1425_10_0" index="0" speed="3.65" length="2.34" shape="1315.23,594.37 1315.68,593.59 1316.93,592.87"/>
    </edge>
    <edge id=":1425_3" function="internal">
        <lane id=":1425_3_0" index="0" speed="7.45" length="9.97" shape="1310.57,586.28 1311.38,589.04 1312.71,591.06 1314.56,592.34 1316.93,592.87"/>
    </edge>
    <edge id=":1425_4" function="internal">
        <lane id=":1425_4_0" index="0" speed="7.79" length="14.69" shape="1310.57,586.28 1310.70,590.37 1309.44,593.37 1306.80,595.25 1302.77,596.03"/>
    </edge>
    <edge id=":1425_5" function="internal">
        <lane id=":1425_5_0" index="0" speed="3.65" length="4.67" shape="1310.57,586.28 1309.99,587.60 1309.27,588.13 1308.41,587.87 1307.42,586.83"/>
    </edge>
    <edge id=":1425_6" function="internal">
        <lane id=":1425_6_0" index="0" speed="6.25" length="9.05" shape="1302.62,592.84 1305.10,592.36 1306.72,591.20 1307.50,589.35 1307.42,586.83"/>
    </edge>
    <edge id=":1425_7" function="internal">
        <lane id=":1425_7_0" index="0" speed="13.89" length="14.32" shape="1302.62,592.84 1306.26,592.70 1309.77,592.65 1313.29,592.70 1316.93,592.87"/>
    </edge>
    <edge id=":1425_8" function="internal">
        <lane id=":1425_8_0" index="0" speed="3.65" length="2.34" shape="1302.62,592.84 1303.85,593.58 1304.29,594.36"/>
    </edge>
    <edge id=":1425_11" function="internal">
        <lane id=":1425_11_0" index="0" speed="3.65" length="2.34" shape="1304.29,594.36 1303.93,595.18 1302.77,596.03"/>
    </edge>
    <edge id=":1427_0" function="internal">
        <lane id=":1427_0_0" index="0" speed="6.28" length="9.04" shape="1214.16,393.92 1211.64,393.88 1209.80,394.67 1208.64,396.31 1208.15,398.78"/>
    </edge>
    <edge id=":1427_1" function="internal">
        <lane id=":1427_1_0" index="0" speed="8.78" length="14.24" shape="1214.16,393.92 1210.30,392.82 1207.47,390.92 1205.66,388.22 1204.87,384.73"/>
    </edge>
    <edge id=":1427_2" function="internal">
        <lane id=":1427_2_0" index="0" speed="3.65" length="4.67" shape="1214.16,393.92 1213.10,392.94 1212.83,392.08 1213.35,391.36 1214.66,390.76"/>
    </edge>
    <edge id=":1427_3" function="internal">
        <lane id=":1427_3_0" index="0" speed="7.41" length="9.91" shape="1208.07,384.50 1208.62,386.86 1209.90,388.69 1211.92,389.99 1214.66,390.76"/>
    </edge>
    <edge id=":1427_4" function="internal">
        <lane id=":1427_4_0" index="0" speed="13.89" length="14.28" shape="1208.07,384.50 1208.27,388.13 1208.34,391.64 1208.30,395.14 1208.15,398.78"/>
    </edge>
    <edge id=":1427_5" function="internal">
        <lane id=":1427_5_0" index="0" speed="3.65" length="2.34" shape="1208.07,384.50 1207.35,385.76 1206.58,386.21"/>
    </edge>
    <edge id=":1427_9" function="internal">
        <lane id=":1427_9_0" index="0" speed="3.65" length="2.34" shape="1206.58,386.21 1205.76,385.87 1204.87,384.73"/>
    </edge>
    <edge id=":1427_6" function="internal">
        <lane id=":1427_6_0" index="0" speed="13.89" length="13.89" shape="1204.96,398.61 1205.10,395.04 1205.14,391.67 1205.07,388.30 1204.87,384.73"/>
    </edge>
    <edge id=":1427_7" function="internal">
        <lane id=":1427_7_0" index="0" speed="7.82" length="5.76" shape="1204.96,398.61 1205.74,394.62 1206.72,393.25"/>
    </edge>
    <edge id=":1427_8" function="internal">
        <lane id=":1427_8_0" index="0" speed="3.65" length="2.34" shape="1204.96,398.61 1205.82,397.46 1206.64,397.10"/>
    </edge>
    <edge id=":1427_10" function="internal">
        <lane id=":1427_10_0" index="0" speed="7.82" length="8.87" shape="1206.72,393.25 1207.62,391.98 1210.59,390.69 1214.66,390.76"/>
    </edge>
    <edge id=":1427_11" function="internal">
        <lane id=":1427_11_0" index="0" speed="3.65" length="2.34" shape="1206.64,397.10 1207.41,397.54 1208.15,398.78"/>
    </edge>
    <edge id=":1430_0" function="internal">
        <lane id=":1430_0_0" index="0" speed="13.89" length="13.67" shape="416.99,299.73 413.46,299.40 410.18,299.25 406.89,299.24 403.35,299.37"/>
    </edge>
    <edge id=":1430_1" function="internal">
        <lane id=":1430_1_0" index="0" speed="8.67" length="5.41" shape="416.99,299.73 413.51,298.81 412.04,297.74"/>
    </edge>
    <edge id=":1430_2" function="internal">
        <lane id=":1430_2_0" index="0" speed="3.65" length="2.34" shape="416.99,299.73 415.89,298.80 415.58,297.96"/>
    </edge>
    <edge id=":1430_9" function="internal">
        <lane id=":1430_9_0" index="0" speed="8.67" length="8.68" shape="412.04,297.74 410.90,296.92 409.16,294.06 408.29,290.24"/>
    </edge>
    <edge id=":1430_10" function="internal">
        <lane id=":1430_10_0" index="0" speed="3.65" length="2.34" shape="415.58,297.96 416.07,297.21 417.35,296.55"/>
    </edge>
    <edge id=":1430_3" function="internal">
        <lane id=":1430_3_0" index="0" speed="7.28" length="9.69" shape="411.47,289.91 412.07,292.59 413.25,294.60 415.01,295.91 417.35,296.55"/>
    </edge>
    <edge id=":1430_4" function="internal">
        <lane id=":1430_4_0" index="0" speed="7.91" length="14.40" shape="411.47,289.91 411.31,293.88 409.90,296.78 407.25,298.61 403.35,299.37"/>
    </edge>
    <edge id=":1430_5" function="internal">
        <lane id=":1430_5_0" index="0" speed="3.65" length="4.67" shape="411.47,289.91 410.80,291.19 410.04,291.67 409.21,291.35 408.29,290.24"/>
    </edge>
    <edge id=":1430_6" function="internal">
        <lane id=":1430_6_0" index="0" speed="6.40" length="9.04" shape="403.19,296.17 405.64,295.70 407.30,294.55 408.19,292.73 408.29,290.24"/>
    </edge>
    <edge id=":1430_7" function="internal">
        <lane id=":1430_7_0" index="0" speed="13.89" length="14.18" shape="403.19,296.17 406.81,296.05 410.28,296.06 413.74,296.22 417.35,296.55"/>
    </edge>
    <edge id=":1430_8" function="internal">
        <lane id=":1430_8_0" index="0" speed="3.65" length="2.34" shape="403.19,296.17 404.43,296.91 404.86,297.69"/>
    </edge>
    <edge id=":1430_11" function="internal">
        <lane id=":1430_11_0" index="0" speed="3.65" length="2.34" shape="404.86,297.69 404.50,298.51 403.35,299.37"/>
    </edge>
    <edge id=":1434_0" function="internal">
        <lane id=":1434_0_0" index="0" speed="6.08" length="7.59" shape="301.20,694.27 300.85,696.31 299.94,697.77 298.46,698.65 296.40,698.94"/>
    </edge>
    <edge id=":1434_1" function="internal">
        <lane id=":1434_1_0" index="0" speed="3.91" length="2.53" shape="296.40,695.74 297.08,695.65 297.58,695.35 297.88,694.87 298.00,694.19"/>
    </edge>
    <edge id=":1436_0" function="internal">
        <lane id=":1436_0_0" index="0" speed="3.65" length="4.67" shape="205.46,600.75 204.30,599.90 203.93,599.08 204.37,598.30 205.60,597.55"/>
    </edge>
    <edge id=":1440_0" function="internal">
        <lane id=":1440_0_0" index="0" speed="6.42" length="9.04" shape="101.60,507.37 101.23,504.91 100.16,503.19 98.39,502.21 95.91,501.97"/>
    </edge>
    <edge id=":1440_1" function="internal">
        <lane id=":1440_1_0" index="0" speed="13.89" length="14.51" shape="101.60,507.37 101.63,492.86"/>
    </edge>
    <edge id=":1440_2" function="internal">
        <lane id=":1440_2_0" index="0" speed="7.95" length="6.04" shape="101.60,507.37 102.14,503.45 103.21,501.66"/>
    </edge>
    <edge id=":1440_3" function="internal">
        <lane id=":1440_3_0" index="0" speed="3.65" length="2.34" shape="101.60,507.37 102.40,506.16 103.19,505.76"/>
    </edge>
    <edge id=":1440_16" function="internal">
        <lane id=":1440_16_0" index="0" speed="7.95" length="8.30" shape="103.21,501.66 103.80,500.69 106.59,499.08 110.50,498.61"/>
    </edge>
    <edge id=":1440_17" function="internal">
        <lane id=":1440_17_0" index="0" speed="3.65" length="2.34" shape="103.19,505.76 104.00,506.15 104.80,507.35"/>
    </edge>
    <edge id=":1440_4" function="internal">
        <lane id=":1440_4_0" index="0" speed="6.45" length="9.06" shape="110.42,501.81 107.95,502.10 106.19,503.12 105.14,504.87 104.80,507.35"/>
    </edge>
    <edge id=":1440_5" function="internal">
        <lane id=":1440_5_0" index="0" speed="13.89" length="14.51" shape="110.42,501.81 95.91,501.97"/>
    </edge>
    <edge id=":1440_6" function="internal">
        <lane id=":1440_6_0" index="0" speed="8.06" length="14.26" shape="110.42,501.81 106.54,501.17 103.78,499.46 102.15,496.69 101.63,492.86"/>
    </edge>
    <edge id=":1440_7" function="internal">
        <lane id=":1440_7_0" index="0" speed="3.65" length="4.67" shape="110.42,501.81 109.24,500.98 108.86,500.17 109.28,499.38 110.50,498.61"/>
    </edge>
    <edge id=":1440_8" function="internal">
        <lane id=":1440_8_0" index="0" speed="6.58" length="9.15" shape="104.83,492.89 105.16,495.34 106.22,497.11 108.00,498.20 110.50,498.61"/>
    </edge>
    <edge id=":1440_9" function="internal">
        <lane id=":1440_9_0" index="0" speed="13.89" length="14.46" shape="104.83,492.89 104.80,507.35"/>
    </edge>
    <edge id=":1440_10" function="internal">
        <lane id=":1440_10_0" index="0" speed="8.21" length="5.83" shape="104.83,492.89 104.24,496.71 103.22,498.39"/>
    </edge>
    <edge id=":1440_11" function="internal">
        <lane id=":1440_11_0" index="0" speed="3.65" length="2.34" shape="104.83,492.89 104.02,494.08 103.21,494.48"/>
    </edge>
    <edge id=":1440_18" function="internal">
        <lane id=":1440_18_0" index="0" speed="8.21" length="8.50" shape="103.22,498.39 102.55,499.49 99.78,501.25 95.91,501.97"/>
    </edge>
    <edge id=":1440_19" function="internal">
        <lane id=":1440_19_0" index="0" speed="3.65" length="2.34" shape="103.21,494.48 102.42,494.07 101.63,492.86"/>
    </edge>
    <edge id=":1440_12" function="internal">
        <lane id=":1440_12_0" index="0" speed="6.75" length="9.38" shape="95.76,498.77 98.31,498.30 100.13,497.16 101.24,495.34 101.63,492.86"/>
    </edge>
    <edge id=":1440_13" function="internal">
        <lane id=":1440_13_0" index="0" speed="13.89" length="14.74" shape="95.76,498.77 110.50,498.61"/>
    </edge>
    <edge id=":1440_14" function="internal">