<?xml version="1.0" encoding="UTF-8"?>

<!-- generated on 05/02/19 10:13:13 by Eclipse SUMO netgenerate Version v1_0_1+0593-c54b143026
<configuration xmlns:xsi="http://www.w3.org/2001/XMLSchema-instance" xsi:noNamespaceSchemaLocation="http://sumo.dlr.de/xsd/netgenerateConfiguration.xsd">

    <spider_network>
        <spider value="true"/>
        <spider.arm-number value="8"/>
        <spider.circle-number value="4"/>
        <spider.omit-center value="true"/>
    </spider_network>

    <output>
        <output-file value="spider.net.xml"/>
    </output>

</configuration>
-->

<net version="1.3" junctionCornerDetail="5" limitTurnSpeed="5.50" xmlns:xsi="http://www.w3.org/2001/XMLSchema-instance" xsi:noNamespaceSchemaLocation="http://sumo.dlr.de/xsd/net_file.xsd">

    <location netOffset="400.00,400.00" convBoundary="0.00,0.00,800.00,800.00" origBoundary="-400.00,-400.00,400.00,400.00" projParameter="!"/>

    <edge id=":B1_0" function="internal">
        <lane id=":B1_0_0" index="0" speed="6.65" length="6.63" shape="504.81,401.60 503.08,401.82 501.65,402.46 500.50,403.54 499.64,405.06"/>
    </edge>
    <edge id=":B1_1" function="internal">
        <lane id=":B1_1_0" index="0" speed="8.18" length="10.43" shape="504.81,401.60 502.10,401.26 499.84,400.24 498.03,398.54 496.68,396.17"/>
    </edge>
    <edge id=":B1_2" function="internal">
        <lane id=":B1_2_0" index="0" speed="3.65" length="4.67" shape="504.81,401.60 503.61,400.80 503.21,400.00 503.61,399.20 504.81,398.40"/>
    </edge>
    <edge id=":B1_3" function="internal">
        <lane id=":B1_3_0" index="0" speed="6.65" length="6.63" shape="499.64,394.94 500.50,396.46 501.65,397.54 503.08,398.18 504.81,398.40"/>
    </edge>
    <edge id=":B1_4" function="internal">
        <lane id=":B1_4_0" index="0" speed="10.74" length="10.56" shape="499.64,394.94 500.71,397.82 501.07,400.00 500.71,402.18 499.64,405.06"/>
    </edge>
    <edge id=":B1_5" function="internal">
        <lane id=":B1_5_0" index="0" speed="3.65" length="2.49" shape="499.64,394.94 499.36,396.36 498.77,397.03 498.62,397.02"/>
    </edge>
    <edge id=":B1_9" function="internal">
        <lane id=":B1_9_0" index="0" speed="3.65" length="2.19" shape="498.62,397.02 497.88,396.97 496.68,396.17"/>
    </edge>
    <edge id=":B1_6" function="internal">
        <lane id=":B1_6_0" index="0" speed="9.33" length="7.87" shape="496.68,403.83 497.28,401.92 497.47,400.00 497.28,398.08 496.68,396.17"/>
    </edge>
    <edge id=":B1_7" function="internal">
        <lane id=":B1_7_0" index="0" speed="8.18" length="4.65" shape="496.68,403.83 498.03,401.46 499.43,400.15"/>
    </edge>
    <edge id=":B1_8" function="internal">
        <lane id=":B1_8_0" index="0" speed="3.65" length="2.34" shape="496.68,403.83 497.88,403.03 498.77,402.97"/>
    </edge>
    <edge id=":B1_10" function="internal">
        <lane id=":B1_10_0" index="0" speed="8.18" length="5.78" shape="499.43,400.15 499.84,399.76 502.10,398.74 504.81,398.40"/>
    </edge>
    <edge id=":B1_11" function="internal">
        <lane id=":B1_11_0" index="0" speed="3.65" length="2.34" shape="498.77,402.97 499.36,403.64 499.64,405.06"/>
    </edge>
    <edge id=":B2_0" function="internal">
        <lane id=":B2_0_0" index="0" speed="6.65" length="6.63" shape="472.98,475.24 471.61,474.18 470.13,473.62 468.56,473.57 466.88,474.03"/>
    </edge>
    <edge id=":B2_1" function="internal">
        <lane id=":B2_1_0" index="0" speed="8.18" length="10.43" shape="472.98,475.24 471.30,473.09 470.43,470.77 470.35,468.29 471.07,465.65"/>
    </edge>
    <edge id=":B2_2" function="internal">
        <lane id=":B2_2_0" index="0" speed="3.65" length="4.67" shape="472.98,475.24 472.70,473.83 472.98,472.98 473.83,472.70 475.24,472.98"/>
    </edge>
    <edge id=":B2_3" function="internal">
        <lane id=":B2_3_0" index="0" speed="6.65" length="6.63" shape="474.03,466.88 473.57,468.56 473.62,470.13 474.18,471.61 475.24,472.98"/>
    </edge>
    <edge id=":B2_4" function="internal">
        <lane id=":B2_4_0" index="0" speed="10.65" length="10.38" shape="474.03,466.88 472.80,469.22 471.19,471.19 469.22,472.80 466.88,474.03"/>
    </edge>
    <edge id=":B2_5" function="internal">
        <lane id=":B2_5_0" index="0" speed="3.65" length="2.49" shape="474.03,466.88 472.83,467.68 471.94,467.74 471.84,467.63"/>
    </edge>
    <edge id=":B2_9" function="internal">
        <lane id=":B2_9_0" index="0" speed="3.65" length="2.19" shape="471.84,467.63 471.35,467.07 471.07,465.65"/>
    </edge>
    <edge id=":B2_6" function="internal">
        <lane id=":B2_6_0" index="0" speed="9.33" length="7.87" shape="465.65,471.07 467.43,470.14 468.92,468.92 470.14,467.43 471.07,465.65"/>
    </edge>
    <edge id=":B2_7" function="internal">
        <lane id=":B2_7_0" index="0" speed="8.18" length="4.09" shape="465.65,471.07 468.29,470.35 469.65,470.39"/>
    </edge>
    <edge id=":B2_8" function="internal">
        <lane id=":B2_8_0" index="0" speed="3.65" length="2.17" shape="465.65,471.07 467.07,471.35 467.62,471.83"/>
    </edge>
    <edge id=":B2_10" function="internal">
        <lane id=":B2_10_0" index="0" speed="8.18" length="6.33" shape="469.65,470.39 470.77,470.43 473.09,471.30 475.24,472.98"/>
    </edge>
    <edge id=":B2_11" function="internal">
        <lane id=":B2_11_0" index="0" speed="3.65" length="2.50" shape="467.62,471.83 467.74,471.94 467.68,472.83 466.88,474.03"/>
    </edge>
    <edge id=":B3_0" function="internal">
        <lane id=":B3_0_0" index="0" speed="6.65" length="6.63" shape="398.40,504.81 398.18,503.08 397.54,501.65 396.46,500.50 394.94,499.64"/>
    </edge>
    <edge id=":B3_1" function="internal">
        <lane id=":B3_1_0" index="0" speed="8.18" length="10.43" shape="398.40,504.81 398.74,502.10 399.76,499.84 401.46,498.03 403.83,496.68"/>
    </edge>
    <edge id=":B3_2" function="internal">
        <lane id=":B3_2_0" index="0" speed="3.65" length="4.67" shape="398.40,504.81 399.20,503.61 400.00,503.21 400.80,503.61 401.60,504.81"/>
    </edge>
    <edge id=":B3_3" function="internal">
        <lane id=":B3_3_0" index="0" speed="6.65" length="6.63" shape="405.06,499.64 403.54,500.50 402.46,501.65 401.82,503.08 401.60,504.81"/>
    </edge>
    <edge id=":B3_4" function="internal">
        <lane id=":B3_4_0" index="0" speed="10.74" length="10.56" shape="405.06,499.64 402.18,500.71 400.00,501.07 397.82,500.71 394.94,499.64"/>
    </edge>
    <edge id=":B3_5" function="internal">
        <lane id=":B3_5_0" index="0" speed="3.65" length="2.49" shape="405.06,499.64 403.64,499.36 402.97,498.77 402.98,498.62"/>
    </edge>
    <edge id=":B3_9" function="internal">
        <lane id=":B3_9_0" index="0" speed="3.65" length="2.19" shape="402.98,498.62 403.03,497.88 403.83,496.68"/>
    </edge>
    <edge id=":B3_6" function="internal">
        <lane id=":B3_6_0" index="0" speed="9.33" length="7.87" shape="396.17,496.68 398.08,497.28 400.00,497.47 401.92,497.28 403.83,496.68"/>
    </edge>
    <edge id=":B3_7" function="internal">
        <lane id=":B3_7_0" index="0" speed="8.18" length="4.65" shape="396.17,496.68 398.54,498.03 399.85,499.43"/>
    </edge>
    <edge id=":B3_8" function="internal">
        <lane id=":B3_8_0" index="0" speed="3.65" length="2.34" shape="396.17,496.68 396.97,497.88 397.03,498.77"/>
    </edge>
    <edge id=":B3_10" function="internal">
        <lane id=":B3_10_0" index="0" speed="8.18" length="5.78" shape="399.85,499.43 400.24,499.84 401.26,502.10 401.60,504.81"/>
    </edge>
    <edge id=":B3_11" function="internal">
        <lane id=":B3_11_0" index="0" speed="3.65" length="2.34" shape="397.03,498.77 396.36,499.36 394.94,499.64"/>
    </edge>
    <edge id=":B4_0" function="internal">
        <lane id=":B4_0_0" index="0" speed="6.65" length="6.63" shape="333.12,474.03 331.44,473.57 329.87,473.62 328.39,474.18 327.02,475.24"/>
    </edge>
    <edge id=":B4_1" function="internal">
        <lane id=":B4_1_0" index="0" speed="10.74" length="10.56" shape="333.12,474.03 330.32,472.75 328.53,471.47 327.25,469.68 325.97,466.88"/>
    </edge>
    <edge id=":B4_2" function="internal">
        <lane id=":B4_2_0" index="0" speed="3.65" length="2.34" shape="333.12,474.03 332.32,472.83 332.26,471.94"/>
    </edge>
    <edge id=":B4_9" function="internal">
        <lane id=":B4_9_0" index="0" speed="3.65" length="2.34" shape="332.26,471.94 332.93,471.35 334.35,471.07"/>
    </edge>
    <edge id=":B4_3" function="internal">
        <lane id=":B4_3_0" index="0" speed="9.41" length="8.01" shape="328.93,465.65 329.89,467.79 330.86,469.14 332.21,470.11 334.35,471.07"/>
    </edge>
    <edge id=":B4_4" function="internal">
        <lane id=":B4_4_0" index="0" speed="8.18" length="4.65" shape="328.93,465.65 329.65,468.29 329.59,470.20"/>
    </edge>
    <edge id=":B4_5" function="internal">
        <lane id=":B4_5_0" index="0" speed="3.65" length="2.34" shape="328.93,465.65 328.65,467.07 328.06,467.74"/>
    </edge>
    <edge id=":B4_10" function="internal">
        <lane id=":B4_10_0" index="0" speed="8.18" length="5.78" shape="329.59,470.20 329.57,470.77 328.70,473.09 327.02,475.24"/>
    </edge>
    <edge id=":B4_11" function="internal">
        <lane id=":B4_11_0" index="0" speed="3.65" length="2.34" shape="328.06,467.74 327.17,467.68 325.97,466.88"/>
    </edge>
    <edge id=":B4_6" function="internal">
        <lane id=":B4_6_0" index="0" speed="6.65" length="6.63" shape="324.76,472.98 325.82,471.61 326.38,470.13 326.43,468.56 325.97,466.88"/>
    </edge>
    <edge id=":B4_7" function="internal">
        <lane id=":B4_7_0" index="0" speed="8.18" length="10.43" shape="324.76,472.98 326.91,471.30 329.23,470.43 331.71,470.35 334.35,471.07"/>
    </edge>
    <edge id=":B4_8" function="internal">
        <lane id=":B4_8_0" index="0" speed="3.65" length="4.67" shape="324.76,472.98 326.17,472.70 327.02,472.98 327.30,473.83 327.02,475.24"/>
    </edge>
    <edge id=":B5_0" function="internal">
        <lane id=":B5_0_0" index="0" speed="6.65" length="6.63" shape="300.36,405.06 299.50,403.54 298.35,402.46 296.92,401.82 295.19,401.60"/>
    </edge>
    <edge id=":B5_1" function="internal">
        <lane id=":B5_1_0" index="0" speed="10.65" length="10.38" shape="300.36,405.06 299.58,402.53 299.32,400.00 299.58,397.47 300.36,394.94"/>
    </edge>
    <edge id=":B5_2" function="internal">
        <lane id=":B5_2_0" index="0" speed="3.65" length="2.49" shape="300.36,405.06 300.64,403.64 301.23,402.97 301.38,402.98"/>
    </edge>
    <edge id=":B5_9" function="internal">
        <lane id=":B5_9_0" index="0" speed="3.65" length="2.19" shape="301.38,402.98 302.12,403.03 303.32,403.83"/>
    </edge>
    <edge id=":B5_3" function="internal">
        <lane id=":B5_3_0" index="0" speed="9.33" length="7.87" shape="303.32,396.17 302.72,398.08 302.53,400.00 302.72,401.92 303.32,403.83"/>
    </edge>
    <edge id=":B5_4" function="internal">
        <lane id=":B5_4_0" index="0" speed="8.18" length="4.09" shape="303.32,396.17 301.97,398.54 300.98,399.47"/>
    </edge>
    <edge id=":B5_5" function="internal">
        <lane id=":B5_5_0" index="0" speed="3.65" length="2.17" shape="303.32,396.17 302.12,396.97 301.39,397.02"/>
    </edge>
    <edge id=":B5_10" function="internal">
        <lane id=":B5_10_0" index="0" speed="8.18" length="6.33" shape="300.98,399.47 300.16,400.24 297.90,401.26 295.19,401.60"/>
    </edge>
    <edge id=":B5_11" function="internal">
        <lane id=":B5_11_0" index="0" speed="3.65" length="2.50" shape="301.39,397.02 301.23,397.03 300.64,396.36 300.36,394.94"/>
    </edge>
    <edge id=":B5_6" function="internal">
        <lane id=":B5_6_0" index="0" speed="6.65" length="6.63" shape="295.19,398.40 296.92,398.18 298.35,397.54 299.50,396.46 300.36,394.94"/>
    </edge>
    <edge id=":B5_7" function="internal">
        <lane id=":B5_7_0" index="0" speed="8.18" length="10.43" shape="295.19,398.40 297.90,398.74 300.16,399.76 301.97,401.46 303.32,403.83"/>
    </edge>
    <edge id=":B5_8" function="internal">
        <lane id=":B5_8_0" index="0" speed="3.65" length="4.67" shape="295.19,398.40 296.39,399.20 296.79,400.00 296.39,400.80 295.19,401.60"/>
    </edge>
    <edge id=":B6_0" function="internal">
        <lane id=":B6_0_0" index="0" speed="9.41" length="8.01" shape="334.35,328.93 332.21,329.89 330.86,330.86 329.89,332.21 328.93,334.35"/>
    </edge>
    <edge id=":B6_1" function="internal">
        <lane id=":B6_1_0" index="0" speed="8.18" length="4.65" shape="334.35,328.93 331.71,329.65 329.80,329.59"/>
    </edge>
    <edge id=":B6_2" function="internal">
        <lane id=":B6_2_0" index="0" speed="3.65" length="2.34" shape="334.35,328.93 332.93,328.65 332.26,328.06"/>
    </edge>
    <edge id=":B6_9" function="internal">
        <lane id=":B6_9_0" index="0" speed="8.18" length="5.78" shape="329.80,329.59 329.23,329.57 326.91,328.70 324.76,327.02"/>
    </edge>
    <edge id=":B6_10" function="internal">
        <lane id=":B6_10_0" index="0" speed="3.65" length="2.34" shape="332.26,328.06 332.32,327.17 333.12,325.97"/>
    </edge>
    <edge id=":B6_3" function="internal">
        <lane id=":B6_3_0" index="0" speed="6.65" length="6.63" shape="327.02,324.76 328.39,325.82 329.87,326.38 331.44,326.43 333.12,325.97"/>
    </edge>
    <edge id=":B6_4" function="internal">
        <lane id=":B6_4_0" index="0" speed="8.18" length="10.43" shape="327.02,324.76 328.70,326.91 329.57,329.23 329.65,331.71 328.93,334.35"/>
    </edge>
    <edge id=":B6_5" function="internal">
        <lane id=":B6_5_0" index="0" speed="3.65" length="4.67" shape="327.02,324.76 327.30,326.17 327.02,327.02 326.17,327.30 324.76,327.02"/>
    </edge>
    <edge id=":B6_6" function="internal">
        <lane id=":B6_6_0" index="0" speed="6.65" length="6.63" shape="325.97,333.12 326.43,331.44 326.38,329.87 325.82,328.39 324.76,327.02"/>
    </edge>
    <edge id=":B6_7" function="internal">
        <lane id=":B6_7_0" index="0" speed="10.74" length="10.56" shape="325.97,333.12 327.25,330.32 328.53,328.53 330.32,327.25 333.12,325.97"/>
    </edge>
    <edge id=":B6_8" function="internal">
        <lane id=":B6_8_0" index="0" speed="3.65" length="2.34" shape="325.97,333.12 327.17,332.32 328.06,332.26"/>
    </edge>
    <edge id=":B6_11" function="internal">
        <lane id=":B6_11_0" index="0" speed="3.65" length="2.34" shape="328.06,332.26 328.65,332.93 328.93,334.35"/>
    </edge>
    <edge id=":B7_0" function="internal">
        <lane id=":B7_0_0" index="0" speed="9.33" length="7.87" shape="403.83,303.32 401.92,302.72 400.00,302.53 398.08,302.72 396.17,303.32"/>
    </edge>
    <edge id=":B7_1" function="internal">
        <lane id=":B7_1_0" index="0" speed="8.18" length="4.09" shape="403.83,303.32 401.46,301.97 400.53,300.98"/>
    </edge>
    <edge id=":B7_2" function="internal">
        <lane id=":B7_2_0" index="0" speed="3.65" length="2.17" shape="403.83,303.32 403.03,302.12 402.98,301.39"/>
    </edge>
    <edge id=":B7_9" function="internal">
        <lane id=":B7_9_0" index="0" speed="8.18" length="6.33" shape="400.53,300.98 399.76,300.16 398.74,297.90 398.40,295.19"/>
    </edge>
    <edge id=":B7_10" function="internal">
        <lane id=":B7_10_0" index="0" speed="3.65" length="2.50" shape="402.98,301.39 402.97,301.23 403.64,300.64 405.06,300.36"/>
    </edge>
    <edge id=":B7_3" function="internal">
        <lane id=":B7_3_0" index="0" speed="6.65" length="6.63" shape="401.60,295.19 401.82,296.92 402.46,298.35 403.54,299.50 405.06,300.36"/>
    </edge>
    <edge id=":B7_4" function="internal">
        <lane id=":B7_4_0" index="0" speed="8.18" length="10.43" shape="401.60,295.19 401.26,297.90 400.24,300.16 398.54,301.97 396.17,303.32"/>
    </edge>
    <edge id=":B7_5" function="internal">
        <lane id=":B7_5_0" index="0" speed="3.65" length="4.67" shape="401.60,295.19 400.80,296.39 400.00,296.79 399.20,296.39 398.40,295.19"/>
    </edge>
    <edge id=":B7_6" function="internal">
        <lane id=":B7_6_0" index="0" speed="6.65" length="6.63" shape="394.94,300.36 396.46,299.50 397.54,298.35 398.18,296.92 398.40,295.19"/>
    </edge>
    <edge id=":B7_7" function="internal">
        <lane id=":B7_7_0" index="0" speed="10.65" length="10.38" shape="394.94,300.36 397.47,299.58 400.00,299.32 402.53,299.58 405.06,300.36"/>
    </edge>
    <edge id=":B7_8" function="internal">
        <lane id=":B7_8_0" index="0" speed="3.65" length="2.49" shape="394.94,300.36 396.36,300.64 397.03,301.23 397.02,301.38"/>
    </edge>
    <edge id=":B7_11" function="internal">
        <lane id=":B7_11_0" index="0" speed="3.65" length="2.19" shape="397.02,301.38 396.97,302.12 396.17,303.32"/>
    </edge>
    <edge id=":B8_0" function="internal">
        <lane id=":B8_0_0" index="0" speed="9.41" length="8.01" shape="471.07,334.35 470.11,332.21 469.14,330.86 467.79,329.89 465.65,328.93"/>
    </edge>
    <edge id=":B8_1" function="internal">
        <lane id=":B8_1_0" index="0" speed="8.18" length="4.65" shape="471.07,334.35 470.35,331.71 470.41,329.80"/>
    </edge>
    <edge id=":B8_2" function="internal">
        <lane id=":B8_2_0" index="0" speed="3.65" length="2.34" shape="471.07,334.35 471.35,332.93 471.94,332.26"/>
    </edge>
    <edge id=":B8_9" function="internal">
        <lane id=":B8_9_0" index="0" speed="8.18" length="5.78" shape="470.41,329.80 470.43,329.23 471.30,326.91 472.98,324.76"/>
    </edge>
    <edge id=":B8_10" function="internal">
        <lane id=":B8_10_0" index="0" speed="3.65" length="2.34" shape="471.94,332.26 472.83,332.32 474.03,333.12"/>
    </edge>
    <edge id=":B8_3" function="internal">
        <lane id=":B8_3_0" index="0" speed="6.65" length="6.63" shape="475.24,327.02 474.18,328.39 473.62,329.87 473.57,331.44 474.03,333.12"/>
    </edge>
    <edge id=":B8_4" function="internal">
        <lane id=":B8_4_0" index="0" speed="8.18" length="10.43" shape="475.24,327.02 473.09,328.70 470.77,329.57 468.29,329.65 465.65,328.93"/>
    </edge>
    <edge id=":B8_5" function="internal">
        <lane id=":B8_5_0" index="0" speed="3.65" length="4.67" shape="475.24,327.02 473.83,327.30 472.98,327.02 472.70,326.17 472.98,324.76"/>
    </edge>
    <edge id=":B8_6" function="internal">
        <lane id=":B8_6_0" index="0" speed="6.65" length="6.63" shape="466.88,325.97 468.56,326.43 470.13,326.38 471.61,325.82 472.98,324.76"/>
    </edge>
    <edge id=":B8_7" function="internal">
        <lane id=":B8_7_0" index="0" speed="10.74" length="10.56" shape="466.88,325.97 469.68,327.25 471.47,328.53 472.75,330.32 474.03,333.12"/>
    </edge>
    <edge id=":B8_8" function="internal">
        <lane id=":B8_8_0" index="0" speed="3.65" length="2.34" shape="466.88,325.97 467.68,327.17 467.74,328.06"/>
    </edge>
    <edge id=":B8_11" function="internal">
        <lane id=":B8_11_0" index="0" speed="3.65" length="2.34" shape="467.74,328.06 467.07,328.65 465.65,328.93"/>
    </edge>
    <edge id=":C1_0" function="internal">
        <lane id=":C1_0_0" index="0" speed="8.53" length="11.39" shape="606.14,401.60 603.74,402.05 601.60,403.38 599.72,405.61 598.11,408.73"/>
    </edge>
    <edge id=":C1_1" function="internal">
        <lane id=":C1_1_0" index="0" speed="13.89" length="14.93" shape="606.14,401.60 591.21,401.60"/>
    </edge>
    <edge id=":C1_2" function="internal">
        <lane id=":C1_2_0" index="0" speed="9.77" length="5.50" shape="606.14,401.60 602.75,401.03 600.96,400.00"/>
    </edge>
    <edge id=":C1_3" function="internal">
        <lane id=":C1_3_0" index="0" speed="3.65" length="2.34" shape="606.14,401.60 604.94,400.80 604.54,400.00"/>
    </edge>
    <edge id=":C1_16" function="internal">
        <lane id=":C1_16_0" index="0" speed="9.77" length="9.67" shape="600.96,400.00 599.79,399.32 597.26,396.48 595.16,392.49"/>
    </edge>
    <edge id=":C1_17" function="internal">
        <lane id=":C1_17_0" index="0" speed="3.65" length="2.34" shape="604.54,400.00 604.94,399.20 606.14,398.40"/>
    </edge>
    <edge id=":C1_4" function="internal">
        <lane id=":C1_4_0" index="0" speed="8.53" length="11.39" shape="598.11,391.27 599.72,394.39 601.60,396.62 603.74,397.95 606.14,398.40"/>
    </edge>
    <edge id=":C1_5" function="internal">
        <lane id=":C1_5_0" index="0" speed="13.88" length="17.92" shape="598.11,391.27 599.47,395.63 599.92,400.00 599.47,404.37 598.11,408.73"/>
    </edge>
    <edge id=":C1_6" function="internal">
        <lane id=":C1_6_0" index="0" speed="7.49" length="15.97" shape="598.11,391.27 599.29,395.79 598.53,399.02 595.84,400.95 591.21,401.60"/>
    </edge>
    <edge id=":C1_7" function="internal">
        <lane id=":C1_7_0" index="0" speed="3.65" length="4.67" shape="598.11,391.27 597.83,392.68 597.25,393.36 596.36,393.29 595.16,392.49"/>
    </edge>
    <edge id=":C1_8" function="internal">
        <lane id=":C1_8_0" index="0" speed="5.82" length="9.13" shape="591.21,398.40 593.86,398.03 595.40,396.92 595.83,395.08 595.16,392.49"/>
    </edge>
    <edge id=":C1_9" function="internal">
        <lane id=":C1_9_0" index="0" speed="13.89" length="14.93" shape="591.21,398.40 606.14,398.40"/>
    </edge>
    <edge id=":C1_10" function="internal">
        <lane id=":C1_10_0" index="0" speed="7.49" length="6.30" shape="591.21,398.40 595.84,399.05 597.16,400.00"/>
    </edge>
    <edge id=":C1_11" function="internal">
        <lane id=":C1_11_0" index="0" speed="3.65" length="2.34" shape="591.21,398.40 592.41,399.20 592.81,400.00"/>
    </edge>
    <edge id=":C1_18" function="internal">
        <lane id=":C1_18_0" index="0" speed="7.49" length="9.67" shape="597.16,400.00 598.53,400.98 599.29,404.21 598.11,408.73"/>
    </edge>
    <edge id=":C1_19" function="internal">
        <lane id=":C1_19_0" index="0" speed="3.65" length="2.34" shape="592.81,400.00 592.41,400.80 591.21,401.60"/>
    </edge>
    <edge id=":C1_12" function="internal">
        <lane id=":C1_12_0" index="0" speed="5.82" length="9.13" shape="595.16,407.51 595.83,404.92 595.40,403.08 593.86,401.97 591.21,401.60"/>
    </edge>
    <edge id=":C1_13" function="internal">
        <lane id=":C1_13_0" index="0" speed="12.89" length="15.41" shape="595.16,407.51 596.32,403.75 596.71,400.00 596.32,396.25 595.16,392.49"/>
    </edge>
    <edge id=":C1_14" function="internal">
        <lane id=":C1_14_0" index="0" speed="9.77" length="15.17" shape="595.16,407.51 597.26,403.52 599.79,400.68 602.75,398.97 606.14,398.40"/>
    </edge>
    <edge id=":C1_15" function="internal">
        <lane id=":C1_15_0" index="0" speed="3.65" length="4.67" shape="595.16,407.51 596.36,406.71 597.25,406.64 597.83,407.32 598.11,408.73"/>
    </edge>
    <edge id=":C2_0" function="internal">
        <lane id=":C2_0_0" index="0" speed="8.53" length="11.39" shape="544.63,546.89 542.62,545.51 540.16,544.94 537.26,545.19 533.91,546.26"/>
    </edge>
    <edge id=":C2_1" function="internal">
        <lane id=":C2_1_0" index="0" speed="13.89" length="14.93" shape="544.63,546.89 534.08,536.34"/>
    </edge>
    <edge id=":C2_2" function="internal">
        <lane id=":C2_2_0" index="0" speed="9.77" length="5.50" shape="544.63,546.89 542.64,544.09 542.10,542.10"/>
    </edge>
    <edge id=":C2_3" function="internal">
        <lane id=":C2_3_0" index="0" speed="3.65" length="2.34" shape="544.63,546.89 544.35,545.48 544.63,544.63"/>
    </edge>
    <edge id=":C2_16" function="internal">
        <lane id=":C2_16_0" index="0" speed="9.77" length="9.67" shape="542.10,542.10 541.75,540.79 541.97,536.99 543.31,532.69"/>
    </edge>
    <edge id=":C2_17" function="internal">
        <lane id=":C2_17_0" index="0" speed="3.65" length="2.34" shape="544.63,544.63 545.48,544.35 546.89,544.63"/>
    </edge>
    <edge id=":C2_4" function="internal">
        <lane id=":C2_4_0" index="0" speed="8.53" length="11.39" shape="546.26,533.91 545.19,537.26 544.94,540.16 545.51,542.62 546.89,544.63"/>
    </edge>
    <edge id=":C2_5" function="internal">
        <lane id=":C2_5_0" index="0" speed="13.88" length="17.92" shape="546.26,533.91 544.13,537.96 541.37,541.37 537.96,544.13 533.91,546.26"/>
    </edge>
    <edge id=":C2_6" function="internal">
        <lane id=":C2_6_0" index="0" speed="7.49" length="15.97" shape="546.26,533.91 543.90,537.94 541.08,539.69 537.80,539.15 534.08,536.34"/>
    </edge>
    <edge id=":C2_7" function="internal">
        <lane id=":C2_7_0" index="0" speed="3.65" length="4.67" shape="546.26,533.91 545.06,534.72 544.17,534.78 543.59,534.10 543.31,532.69"/>
    </edge>
    <edge id=":C2_8" function="internal">
        <lane id=":C2_8_0" index="0" speed="5.82" length="9.13" shape="536.34,534.08 538.47,535.68 540.34,535.99 541.95,534.99 543.31,532.69"/>
    </edge>
    <edge id=":C2_9" function="internal">
        <lane id=":C2_9_0" index="0" speed="13.89" length="14.93" shape="536.34,534.08 546.89,544.63"/>
    </edge>
    <edge id=":C2_10" function="internal">
        <lane id=":C2_10_0" index="0" speed="7.49" length="6.30" shape="536.34,534.08 539.15,537.80 539.41,539.41"/>
    </edge>
    <edge id=":C2_11" function="internal">
        <lane id=":C2_11_0" index="0" speed="3.65" length="2.34" shape="536.34,534.08 536.62,535.49 536.34,536.34"/>
    </edge>
    <edge id=":C2_18" function="internal">
        <lane id=":C2_18_0" index="0" speed="7.49" length="9.67" shape="539.41,539.41 539.69,541.08 537.94,543.90 533.91,546.26"/>
    </edge>
    <edge id=":C2_19" function="internal">
        <lane id=":C2_19_0" index="0" speed="3.65" length="2.34" shape="536.34,536.34 535.49,536.62 534.08,536.34"/>
    </edge>
    <edge id=":C2_12" function="internal">
        <lane id=":C2_12_0" index="0" speed="5.82" length="9.13" shape="532.69,543.31 534.99,541.95 535.99,540.34 535.68,538.47 534.08,536.34"/>
    </edge>
    <edge id=":C2_13" function="internal">
        <lane id=":C2_13_0" index="0" speed="12.87" length="15.36" shape="532.69,543.31 536.03,541.49 539.01,539.01 541.49,536.03 543.31,532.69"/>
    </edge>
    <edge id=":C2_14" function="internal">
        <lane id=":C2_14_0" index="0" speed="9.77" length="15.17" shape="532.69,543.31 536.99,541.97 540.79,541.75 544.09,542.64 546.89,544.63"/>
    </edge>
    <edge id=":C2_15" function="internal">
        <lane id=":C2_15_0" index="0" speed="3.65" length="4.67" shape="532.69,543.31 534.10,543.59 534.78,544.17 534.72,545.06 533.91,546.26"/>
    </edge>
    <edge id=":C3_0" function="internal">
        <lane id=":C3_0_0" index="0" speed="8.53" length="11.39" shape="398.40,606.14 397.95,603.74 396.62,601.60 394.39,599.72 391.27,598.11"/>
    </edge>
    <edge id=":C3_1" function="internal">
        <lane id=":C3_1_0" index="0" speed="13.89" length="14.93" shape="398.40,606.14 398.40,591.21"/>
    </edge>
    <edge id=":C3_2" function="internal">
        <lane id=":C3_2_0" index="0" speed="9.77" length="5.50" shape="398.40,606.14 398.97,602.75 400.00,600.96"/>
    </edge>
    <edge id=":C3_3" function="internal">
        <lane id=":C3_3_0" index="0" speed="3.65" length="2.34" shape="398.40,606.14 399.20,604.94 400.00,604.54"/>
    </edge>
    <edge id=":C3_16" function="internal">
        <lane id=":C3_16_0" index="0" speed="9.77" length="9.67" shape="400.00,600.96 400.68,599.79 403.52,597.26 407.51,595.16"/>
    </edge>
    <edge id=":C3_17" function="internal">
        <lane id=":C3_17_0" index="0" speed="3.65" length="2.34" shape="400.00,604.54 400.80,604.94 401.60,606.14"/>
    </edge>
    <edge id=":C3_4" function="internal">
        <lane id=":C3_4_0" index="0" speed="8.53" length="11.39" shape="408.73,598.11 405.61,599.72 403.38,601.60 402.05,603.74 401.60,606.14"/>
    </edge>
    <edge id=":C3_5" function="internal">
        <lane id=":C3_5_0" index="0" speed="13.82" length="17.77" shape="408.73,598.11 404.70,599.19 400.00,599.55 395.30,599.19 391.27,598.11"/>
    </edge>
    <edge id=":C3_6" function="internal">
        <lane id=":C3_6_0" index="0" speed="7.49" length="15.97" shape="408.73,598.11 404.21,599.29 400.98,598.53 399.05,595.84 398.40,591.21"/>
    </edge>
    <edge id=":C3_7" function="internal">
        <lane id=":C3_7_0" index="0" speed="3.65" length="4.67" shape="408.73,598.11 407.32,597.83 406.64,597.25 406.71,596.36 407.51,595.16"/>
    </edge>
    <edge id=":C3_8" function="internal">
        <lane id=":C3_8_0" index="0" speed="5.82" length="9.13" shape="401.60,591.21 401.97,593.86 403.08,595.40 404.92,595.83 407.51,595.16"/>
    </edge>
    <edge id=":C3_9" function="internal">
        <lane id=":C3_9_0" index="0" speed="13.89" length="14.93" shape="401.60,591.21 401.60,606.14"/>
    </edge>
    <edge id=":C3_10" function="internal">
        <lane id=":C3_10_0" index="0" speed="7.49" length="6.30" shape="401.60,591.21 400.95,595.84 400.00,597.16"/>
    </edge>
    <edge id=":C3_11" function="internal">
        <lane id=":C3_11_0" index="0" speed="3.65" length="2.34" shape="401.60,591.21 400.80,592.41 400.00,592.81"/>
    </edge>
    <edge id=":C3_18" function="internal">
        <lane id=":C3_18_0" index="0" speed="7.49" length="9.67" shape="400.00,597.16 399.02,598.53 395.79,599.29 391.27,598.11"/>
    </edge>
    <edge id=":C3_19" function="internal">
        <lane id=":C3_19_0" index="0" speed="3.65" length="2.34" shape="400.00,592.81 399.20,592.41 398.40,591.21"/>
    </edge>
    <edge id=":C3_12" function="internal">
        <lane id=":C3_12_0" index="0" speed="5.82" length="9.13" shape="392.49,595.16 395.08,595.83 396.92,595.40 398.03,593.86 398.40,591.21"/>
    </edge>
    <edge id=":C3_13" function="internal">
        <lane id=":C3_13_0" index="0" speed="12.89" length="15.41" shape="392.49,595.16 396.25,596.32 400.00,596.71 403.75,596.32 407.51,595.16"/>
    </edge>
    <edge id=":C3_14" function="internal">
        <lane id=":C3_14_0" index="0" speed="9.77" length="15.17" shape="392.49,595.16 396.48,597.26 399.32,599.79 401.03,602.75 401.60,606.14"/>
    </edge>
    <edge id=":C3_15" function="internal">
        <lane id=":C3_15_0" index="0" speed="3.65" length="4.67" shape="392.49,595.16 393.29,596.36 393.36,597.25 392.68,597.83 391.27,598.11"/>
    </edge>