<?xml version="1.0" encoding="UTF-8"?>
<!-- generated on 2020-10-02 09:57:32.615779 by randomTrips.py v1_7_0+0421-42b131a0fc
  options: -n osm.net.xml <doubleminus>seed 42 <doubleminus>fringe-factor 1 -p 1.054832 -o osm.pedestrian.trips.xml -e 1800 -r osm.pedestrian.rou.xml <doubleminus>vehicle-class pedestrian <doubleminus>persontrips <doubleminus>prefix ped <doubleminus>trip-attributes modes="public" <doubleminus>additional-files osm_stops.add.xml,osm_pt.rou.xml
-->
<routes xmlns:xsi="http://www.w3.org/2001/XMLSchema-instance" xsi:noNamespaceSchemaLocation="http://sumo.dlr.de/xsd/routes_file.xsd">
    <vType id="ped_pedestrian" vClass="pedestrian"/>
    <person id="ped0" depart="0.00" type="ped_pedestrian">
        <personTrip from="314415495#9" to="-138624477#2" modes="public"/>
    </person>
    <person id="ped1" depart="1.05" type="ped_pedestrian">
        <personTrip from="-578659362" to="-38568630#4" modes="public"/>
    </person>
    <person id="ped2" depart="2.11" type="ped_pedestrian">
        <personTrip from="53021669" to="38569946#2" modes="public"/>
    </person>
    <person id="ped3" depart="3.16" type="ped_pedestrian">
        <personTrip from="81096606#2" to="-151237874#0" modes="public"/>
    </person>
    <person id="ped4" depart="4.22" type="ped_pedestrian">
        <personTrip from="142575679#6" to="-142575655#6" modes="public"/>
    </person>
    <person id="ped5" depart="5.27" type="ped_pedestrian">
        <personTrip from="-375685718#0" to="166142951#1" modes="public"/>
    </person>
    <person id="ped6" depart="6.33" type="ped_pedestrian">
        <personTrip from="-140964910#2" to="-318210373#0" modes="public"/>
    </person>
    <person id="ped7" depart="7.38" type="ped_pedestrian">
        <personTrip from="320741898#2" to="22928749#2" modes="public"/>
    </person>
    <person id="ped8" depart="8.44" type="ped_pedestrian">
        <personTrip from="-38159999#8" to="25944601#0" modes="public"/>
    </person>
    <person id="ped9" depart="9.49" type="ped_pedestrian">
        <personTrip from="586124047" to="-116343628#3" modes="public"/>
    </person>
    <person id="ped10" depart="10.55" type="ped_pedestrian">
        <personTrip from="586124015" to="408709166#3" modes="public"/>
    </person>
    <person id="ped11" depart="11.60" type="ped_pedestrian">
        <personTrip from="-821789008" to="-24791997#1" modes="public"/>
    </person>
    <person id="ped12" depart="12.66" type="ped_pedestrian">
        <personTrip from="841976395#1" to="-81096582#0" modes="public"/>
    </person>
    <person id="ped13" depart="13.71" type="ped_pedestrian">
        <personTrip from="-152470902" to="-156071615#3" modes="public"/>
    </person>
    <person id="ped14" depart="14.77" type="ped_pedestrian">
        <personTrip from="677923383#1" to="26816590#1" modes="public"/>
    </person>
    <person id="ped15" depart="15.82" type="ped_pedestrian">
        <personTrip from="586124030" to="52081116#2" modes="public"/>
    </person>
    <person id="ped16" depart="16.88" type="ped_pedestrian">
        <personTrip from="213883652" to="843190013#5" modes="public"/>
    </person>
    <person id="ped17" depart="17.93" type="ped_pedestrian">
        <personTrip from="118262353#2" to="239335492#0" modes="public"/>
    </person>
    <person id="ped18" depart="18.99" type="ped_pedestrian">
        <personTrip from="630078134#0" to="283317443#6" modes="public"/>
    </person>
    <person id="ped19" depart="20.04" type="ped_pedestrian">
        <personTrip from="70255226#1" to="24733698#1" modes="public"/>
    </person>
    <person id="ped20" depart="21.10" type="ped_pedestrian">
        <personTrip from="41324822#1" to="-142575701#4" modes="public"/>
    </person>
    <person id="ped21" depart="22.15" type="ped_pedestrian">
        <personTrip from="-38574189#6" to="-583475562" modes="public"/>
    </person>
    <person id="ped22" depart="23.21" type="ped_pedestrian">
        <personTrip from="-148803140" to="-40570987" modes="public"/>
    </person>
    <person id="ped23" depart="24.26" type="ped_pedestrian">
        <personTrip from="-175355420#0" to="-579048918" modes="public"/>
    </person>
    <person id="ped24" depart="25.32" type="ped_pedestrian">
        <personTrip from="313964778#1" to="114024903#2" modes="public"/>
    </person>
    <person id="ped25" depart="26.37" type="ped_pedestrian">
        <personTrip from="114285344#2" to="-334308447#0" modes="public"/>
    </person>
    <person id="ped26" depart="27.43" type="ped_pedestrian">
        <personTrip from="-53530096" to="840221731" modes="public"/>
    </person>
    <person id="ped27" depart="28.48" type="ped_pedestrian">
        <personTrip from="320153867" to="26991766#14" modes="public"/>
    </person>
    <person id="ped28" depart="29.54" type="ped_pedestrian">
        <personTrip from="-26842370#0" to="52081093#1" modes="public"/>
    </person>
    <person id="ped29" depart="30.59" type="ped_pedestrian">
        <personTrip from="-26444467#4" to="122666828#2" modes="public"/>
    </person>
    <person id="ped30" depart="31.64" type="ped_pedestrian">
        <personTrip from="845194200" to="317451316#0" modes="public"/>
    </person>
    <person id="ped31" depart="32.70" type="ped_pedestrian">
        <personTrip from="24038584#18" to="397678495#0" modes="public"/>
    </person>
    <person id="ped32" depart="33.75" type="ped_pedestrian">
        <personTrip from="670062907#2" to="579048881#1" modes="public"/>
    </person>
    <person id="ped33" depart="34.81" type="ped_pedestrian">
        <personTrip from="-38574191" to="-142575656#9" modes="public"/>
    </person>
    <person id="ped34" depart="35.86" type="ped_pedestrian">
        <personTrip from="-708544917#1" to="-54039583#0" modes="public"/>
    </person>
    <person id="ped35" depart="36.92" type="ped_pedestrian">
        <personTrip from="-33691719#0" to="840221738#5" modes="public"/>
    </person>
    <person id="ped36" depart="37.97" type="ped_pedestrian">
        <personTrip from="747943674" to="-70255226#0" modes="public"/>
    </person>
    <person id="ped37" depart="39.03" type="ped_pedestrian">
        <personTrip from="328398944" to="138624421#30" modes="public"/>
    </person>
    <person id="ped38" depart="40.08" type="ped_pedestrian">
        <personTrip from="840221703#0" to="143308546#10" modes="public"/>
    </person>
    <person id="ped39" depart="41.14" type="ped_pedestrian">
        <personTrip from="-53529476#0" to="-45875459#5" modes="public"/>
    </person>
    <person id="ped40" depart="42.19" type="ped_pedestrian">
        <personTrip from="24149293" to="-53529255#6" modes="public"/>
    </person>
    <person id="ped41" depart="43.25" type="ped_pedestrian">
        <personTrip from="257131026" to="821787243" modes="public"/>
    </person>
    <person id="ped42" depart="44.30" type="ped_pedestrian">
        <personTrip from="138624445#3" to="-38159999#10" modes="public"/>
    </person>
    <person id="ped43" depart="45.36" type="ped_pedestrian">
        <personTrip from="94517926#3" to="175355420#2" modes="public"/>
    </person>
    <person id="ped44" depart="46.41" type="ped_pedestrian">
        <personTrip from="-152466402#18" to="-142575704#13" modes="public"/>
    </person>
    <person id="ped45" depart="47.47" type="ped_pedestrian">
        <personTrip from="-190083616#0" to="30978404#0" modes="public"/>
    </person>
    <person id="ped46" depart="48.52" type="ped_pedestrian">
        <personTrip from="579786647" to="142575679#8" modes="public"/>
    </person>
    <person id="ped47" depart="49.58" type="ped_pedestrian">
        <personTrip from="-143308527#5" to="125399001#3" modes="public"/>
    </person>
    <person id="ped48" depart="50.63" type="ped_pedestrian">
        <personTrip from="92914055#2" to="20551905#0" modes="public"/>
    </person>
    <person id="ped49" depart="51.69" type="ped_pedestrian">
        <personTrip from="843190011#1" to="702305701#1" modes="public"/>
    </person>
    <person id="ped50" depart="52.74" type="ped_pedestrian">
        <personTrip from="-135777010#14" to="487193789#0" modes="public"/>
    </person>
    <person id="ped51" depart="53.80" type="ped_pedestrian">
        <personTrip from="38915290#2" to="213883661" modes="public"/>
    </person>
    <person id="ped52" depart="54.85" type="ped_pedestrian">
        <personTrip from="-53529919#2" to="318210355" modes="public"/>
    </person>
    <person id="ped53" depart="55.91" type="ped_pedestrian">
        <personTrip from="-190928929#2" to="142575701#2" modes="public"/>
    </person>
    <person id="ped54" depart="56.96" type="ped_pedestrian">
        <personTrip from="143308523#4" to="841345129#5" modes="public"/>
    </person>
    <person id="ped55" depart="58.02" type="ped_pedestrian">
        <personTrip from="747191447#2" to="-53529411#0" modes="public"/>
    </person>
    <person id="ped56" depart="59.07" type="ped_pedestrian">
        <personTrip from="152709214#0" to="-278500217#2" modes="public"/>
    </person>
    <person id="ped57" depart="60.13" type="ped_pedestrian">
        <personTrip from="840221700#3" to="71960707" modes="public"/>
    </person>
    <person id="ped58" depart="61.18" type="ped_pedestrian">
        <personTrip from="-586124069" to="314415495#6" modes="public"/>
    </person>
    <person id="ped59" depart="62.24" type="ped_pedestrian">
        <personTrip from="26991766#13" to="-24733697#0" modes="public"/>
    </person>
    <person id="ped60" depart="63.29" type="ped_pedestrian">
        <personTrip from="568569666#1" to="22758963" modes="public"/>
    </person>
    <person id="ped61" depart="64.34" type="ped_pedestrian">
        <personTrip from="579202713" to="20551912#0" modes="public"/>
    </person>
    <person id="ped62" depart="65.40" type="ped_pedestrian">
        <personTrip from="-114024903#1" to="-721625615#2" modes="public"/>
    </person>
    <person id="ped63" depart="66.45" type="ped_pedestrian">
        <personTrip from="-138624445#1" to="840221724#0" modes="public"/>
    </person>
    <person id="ped64" depart="67.51" type="ped_pedestrian">
        <personTrip from="767962952" to="630078146#2" modes="public"/>
    </person>
    <person id="ped65" depart="68.56" type="ped_pedestrian">
        <personTrip from="-679894150" to="-142598713" modes="public"/>
    </person>
    <person id="ped66" depart="69.62" type="ped_pedestrian">
        <personTrip from="767962949" to="840221739#9" modes="public"/>
    </person>
    <person id="ped67" depart="70.67" type="ped_pedestrian">
        <personTrip from="-151237848" to="149611524#1" modes="public"/>
    </person>
    <person id="ped68" depart="71.73" type="ped_pedestrian">
        <personTrip from="-143308673#2" to="55939169#0" modes="public"/>
    </person>
    <person id="ped69" depart="72.78" type="ped_pedestrian">
        <personTrip from="578659321#0" to="-23925122#1" modes="public"/>
    </person>
    <person id="ped70" depart="73.84" type="ped_pedestrian">
        <personTrip from="143482779#1" to="23919022#0" modes="public"/>
    </person>
    <person id="ped71" depart="74.89" type="ped_pedestrian">
        <personTrip from="-53529476#1" to="721625613#0" modes="public"/>
    </person>
    <person id="ped72" depart="75.95" type="ped_pedestrian">
        <personTrip from="142575684#6" to="-347935096#2" modes="public"/>
    </person>
    <person id="ped73" depart="77.00" type="ped_pedestrian">
        <personTrip from="22758963" to="52081116#3" modes="public"/>
    </person>
    <person id="ped74" depart="78.06" type="ped_pedestrian">
        <personTrip from="-31952783" to="-691266822#5" modes="public"/>
    </person>
    <person id="ped75" depart="79.11" type="ped_pedestrian">
        <personTrip from="92914038#0" to="320741898#2" modes="public"/>
    </person>
    <person id="ped76" depart="80.17" type="ped_pedestrian">
        <personTrip from="142575704#4" to="180800504#4" modes="public"/>
    </person>
    <person id="ped77" depart="81.22" type="ped_pedestrian">
        <personTrip from="-22928674#5" to="-38568648" modes="public"/>
    </person>
    <person id="ped78" depart="82.28" type="ped_pedestrian">
        <personTrip from="-81096611#6" to="25944450#2" modes="public"/>
    </person>
    <person id="ped79" depart="83.33" type="ped_pedestrian">
        <personTrip from="-38915290#1" to="-38159999#7" modes="public"/>
    </person>
    <person id="ped80" depart="84.39" type="ped_pedestrian">
        <personTrip from="-143308707" to="312192825" modes="public"/>
    </person>
    <person id="ped81" depart="85.44" type="ped_pedestrian">
        <personTrip from="-38574191" to="836821655#0" modes="public"/>
    </person>
    <person id="ped82" depart="86.50" type="ped_pedestrian">
        <personTrip from="70214888#1" to="-143308700#2" modes="public"/>
    </person>
    <person id="ped83" depart="87.55" type="ped_pedestrian">
        <personTrip from="-40985814#0" to="37958340#0" modes="public"/>
    </person>
    <person id="ped84" depart="88.61" type="ped_pedestrian">
        <personTrip from="-35554225#2" to="-24038584#11" modes="public"/>
    </person>
    <person id="ped85" depart="89.66" type="ped_pedestrian">
        <personTrip from="840221729#6" to="24160814#1" modes="public"/>
    </person>
    <person id="ped86" depart="90.72" type="ped_pedestrian">
        <personTrip from="143482758" to="579613008#1" modes="public"/>
    </person>
    <person id="ped87" depart="91.77" type="ped_pedestrian">
        <personTrip from="586124033" to="-312192827" modes="public"/>
    </person>
    <person id="ped88" depart="92.83" type="ped_pedestrian">
        <personTrip from="-156071615#4" to="142575693#6" modes="public"/>
    </person>
    <person id="ped89" depart="93.88" type="ped_pedestrian">
        <personTrip from="142575686#1" to="143308646#0" modes="public"/>
    </person>
    <person id="ped90" depart="94.93" type="ped_pedestrian">
        <personTrip from="52081093#1" to="38568629" modes="public"/>
    </person>
    <person id="ped91" depart="95.99" type="ped_pedestrian">
        <personTrip from="843832571#0" to="-169076556#2" modes="public"/>
    </person>
    <person id="ped92" depart="97.04" type="ped_pedestrian">
        <personTrip from="138624469#9" to="-821787244" modes="public"/>
    </person>
    <person id="ped93" depart="98.10" type="ped_pedestrian">
        <personTrip from="70255226#0" to="-46771533#0" modes="public"/>
    </person>
    <person id="ped94" depart="99.15" type="ped_pedestrian">
        <personTrip from="-312192781#2" to="142598712" modes="public"/>
    </person>
    <person id="ped95" depart="100.21" type="ped_pedestrian">
        <personTrip from="142575679#6" to="-579202699#1" modes="public"/>
    </person>
    <person id="ped96" depart="101.26" type="ped_pedestrian">
        <personTrip from="-46771551#2" to="840221713#8" modes="public"/>
    </person>
    <person id="ped97" depart="102.32" type="ped_pedestrian">
        <personTrip from="142575725#5" to="702305702#2" modes="public"/>
    </person>
    <person id="ped98" depart="103.37" type="ped_pedestrian">
        <personTrip from="23919022#3" to="-142575710#1" modes="public"/>
    </person>
    <person id="ped99" depart="104.43" type="ped_pedestrian">
        <personTrip from="9859700#2" to="630078181#0" modes="public"/>
    </person>
    <person id="ped100" depart="105.48" type="ped_pedestrian">
        <personTrip from="843190003#1" to="840221718#3" modes="public"/>
    </person>
    <person id="ped101" depart="106.54" type="ped_pedestrian">
        <personTrip from="681408360" to="-26814457#2" modes="public"/>
    </person>
    <person id="ped102" depart="107.59" type="ped_pedestrian">
        <personTrip from="149611514#9" to="-35554225#0" modes="public"/>
    </person>
    <person id="ped103" depart="108.65" type="ped_pedestrian">
        <personTrip from="138624469#10" to="-143308493#3" modes="public"/>
    </person>
    <person id="ped104" depart="109.70" type="ped_pedestrian">
        <personTrip from="122666827" to="843832577#0" modes="public"/>
    </person>
    <person id="ped105" depart="110.76" type="ped_pedestrian">
        <personTrip from="-53529509#0" to="579580100" modes="public"/>
    </person>
    <person id="ped106" depart="111.81" type="ped_pedestrian">
        <personTrip from="143308527#1" to="142575684#4" modes="public"/>
    </person>
    <person id="ped107" depart="112.87" type="ped_pedestrian">
        <personTrip from="841976395#2" to="92914038#2" modes="public"/>
    </person>
    <person id="ped108" depart="113.92" type="ped_pedestrian">
        <personTrip from="24038584#1" to="46771551#0" modes="public"/>
    </person>
    <person id="ped109" depart="114.98" type="ped_pedestrian">
        <personTrip from="-24791993#6" to="-586124061" modes="public"/>
    </person>
    <person id="ped110" depart="116.03" type="ped_pedestrian">
        <personTrip from="843190003#0" to="24791997#0" modes="public"/>
    </person>
    <person id="ped111" depart="117.09" type="ped_pedestrian">
        <personTrip from="22928674#4" to="540223981#0" modes="public"/>
    </person>
    <person id="ped112" depart="118.14" type="ped_pedestrian">
        <personTrip from="-142575744#1" to="257131023" modes="public"/>
    </person>
    <person id="ped113" depart="119.20" type="ped_pedestrian">
        <personTrip from="153021549#3" to="685966859" modes="public"/>
    </person>
    <person id="ped114" depart="120.25" type="ped_pedestrian">
        <personTrip from="-257131026" to="843189995#1" modes="public"/>
    </person>
    <person id="ped115" depart="121.31" type="ped_pedestrian">
        <personTrip from="-149611511#1" to="-28888490#2" modes="public"/>
    </person>
    <person id="ped116" depart="122.36" type="ped_pedestrian">
        <personTrip from="26444467#1" to="38568643" modes="public"/>
    </person>
    <person id="ped117" depart="123.42" type="ped_pedestrian">
        <personTrip from="-408709165#0" to="-22928648#1" modes="public"/>
    </person>
    <person id="ped118" depart="124.47" type="ped_pedestrian">
        <personTrip from="81096582#1" to="-45875459#3" modes="public"/>
    </person>
    <person id="ped119" depart="125.53" type="ped_pedestrian">
        <personTrip from="26004966#3" to="283317448" modes="public"/>
    </person>
    <person id="ped120" depart="126.58" type="ped_pedestrian">
        <personTrip from="142575672#3" to="257072322#2" modes="public"/>
    </person>
    <person id="ped121" depart="127.63" type="ped_pedestrian">
        <personTrip from="190083625#0" to="840221729#1" modes="public"/>
    </person>
    <person id="ped122" depart="128.69" type="ped_pedestrian">
        <personTrip from="-320741898#0" to="46150482" modes="public"/>
    </person>
    <person id="ped123" depart="129.74" type="ped_pedestrian">
        <personTrip from="-411478098" to="138624421#30" modes="public"/>
    </person>
    <person id="ped124" depart="130.80" type="ped_pedestrian">
        <personTrip from="382647882" to="-586124078" modes="public"/>
    </person>
    <person id="ped125" depart="131.85" type="ped_pedestrian">
        <personTrip from="-708544920#1" to="54039583#12" modes="public"/>
    </person>
    <person id="ped126" depart="132.91" type="ped_pedestrian">
        <personTrip from="-143482765#0" to="143308542#6" modes="public"/>
    </person>
    <person id="ped127" depart="133.96" type="ped_pedestrian">
        <personTrip from="98256382#2" to="92914055#2" modes="public"/>
    </person>
    <person id="ped128" depart="135.02" type="ped_pedestrian">
        <personTrip from="-143482766#2" to="-354084466#0" modes="public"/>
    </person>
    <person id="ped129" depart="136.07" type="ped_pedestrian">
        <personTrip from="-53529509#0" to="840221728#3" modes="public"/>
    </person>
    <person id="ped130" depart="137.13" type="ped_pedestrian">
        <personTrip from="77761458" to="769408287#3" modes="public"/>
    </person>
    <person id="ped131" depart="138.18" type="ped_pedestrian">
        <personTrip from="114285341#1" to="-257131028" modes="public"/>
    </person>
    <person id="ped132" depart="139.24" type="ped_pedestrian">
        <personTrip from="630078162#4" to="41321354#1" modes="public"/>
    </person>
    <person id="ped133" depart="140.29" type="ped_pedestrian">
        <personTrip from="27087434#1" to="843832586#1" modes="public"/>
    </person>
    <person id="ped134" depart="141.35" type="ped_pedestrian">
        <personTrip from="326994261#0" to="-125399001#1" modes="public"/>
    </person>
    <person id="ped135" depart="142.40" type="ped_pedestrian">
        <personTrip from="59461375#1" to="-586124075" modes="public"/>
    </person>
    <person id="ped136" depart="143.46" type="ped_pedestrian">
        <personTrip from="35554225#1" to="840221734#0" modes="public"/>
    </person>
    <person id="ped137" depart="144.51" type="ped_pedestrian">
        <personTrip from="-24038584#4" to="-206579064#3" modes="public"/>
    </person>
    <person id="ped138" depart="145.57" type="ped_pedestrian">
        <personTrip from="-187122892#2" to="24031723#0" modes="public"/>
    </person>
    <person id="ped139" depart="146.62" type="ped_pedestrian">
        <personTrip from="-552547558#0" to="26816766#0" modes="public"/>
    </person>
    <person id="ped140" depart="147.68" type="ped_pedestrian">
        <personTrip from="46771533#0" to="-320741895#2" modes="public"/>
    </person>
    <person id="ped141" depart="148.73" type="ped_pedestrian">
        <personTrip from="312889498" to="-53529416#1" modes="public"/>
    </person>
    <person id="ped142" depart="149.79" type="ped_pedestrian">
        <personTrip from="149670380#2" to="836821655#0" modes="public"/>
    </person>
    <person id="ped143" depart="150.84" type="ped_pedestrian">
        <personTrip from="670062935" to="-152466402#9" modes="public"/>
    </person>
    <person id="ped144" depart="151.90" type="ped_pedestrian">
        <personTrip from="142575686#1" to="-579048880#1" modes="public"/>
    </person>
    <person id="ped145" depart="152.95" type="ped_pedestrian">
        <personTrip from="-114952399#1" to="578843078#4" modes="public"/>
    </person>
    <person id="ped146" depart="154.01" type="ped_pedestrian">
        <personTrip from="314415495#16" to="-53529255#1" modes="public"/>
    </person>
    <person id="ped147" depart="155.06" type="ped_pedestrian">
        <personTrip from="53529255#3" to="23925124#1" modes="public"/>
    </person>
    <person id="ped148" depart="156.12" type="ped_pedestrian">
        <personTrip from="142575690#5" to="-133858467#0" modes="public"/>
    </person>
    <person id="ped149" depart="157.17" type="ped_pedestrian">
        <personTrip from="-146511461#10" to="780225326#4" modes="public"/>
    </person>
    <person id="ped150" depart="158.22" type="ped_pedestrian">
        <personTrip from="823715481" to="229502577" modes="public"/>
    </person>
    <person id="ped151" depart="159.28" type="ped_pedestrian">
        <personTrip from="630078162#9" to="257072321#2" modes="public"/>
    </person>
    <person id="ped152" depart="160.33" type="ped_pedestrian">
        <personTrip from="-24160821#0" to="-23919022#1" modes="public"/>
    </person>
    <person id="ped153" depart="161.39" type="ped_pedestrian">
        <personTrip from="-683972872" to="821789008" modes="public"/>
    </person>
    <person id="ped154" depart="162.44" type="ped_pedestrian">
        <personTrip from="581145190" to="702305701#1" modes="public"/>
    </person>
    <person id="ped155" depart="163.50" type="ped_pedestrian">
        <personTrip from="821789008" to="-334308447#6" modes="public"/>
    </person>
    <person id="ped156" depart="164.55" type="ped_pedestrian">
        <personTrip from="-46771551#0" to="-175357041#0" modes="public"/>
    </person>
    <person id="ped157" depart="165.61" type="ped_pedestrian">
        <personTrip from="579269929#1" to="780225334" modes="public"/>
    </person>
    <person id="ped158" depart="166.66" type="ped_pedestrian">
        <personTrip from="140964907" to="286807890" modes="public"/>
    </person>
    <person id="ped159" depart="167.72" type="ped_pedestrian">
        <personTrip from="-24791993#4" to="840221725#0" modes="public"/>
    </person>
    <person id="ped160" depart="168.77" type="ped_pedestrian">
        <personTrip from="708753756#1" to="843190016#11" modes="public"/>
    </person>
    <person id="ped161" depart="169.83" type="ped_pedestrian">
        <personTrip from="586124055" to="77761480#1" modes="public"/>
    </person>
    <person id="ped162" depart="170.88" type="ped_pedestrian">
        <personTrip from="-138624477#0" to="53021671#0" modes="public"/>
    </person>
    <person id="ped163" depart="171.94" type="ped_pedestrian">
        <personTrip from="-786239352" to="840221726#5" modes="public"/>
    </person>
    <person id="ped164" depart="172.99" type="ped_pedestrian">
        <personTrip from="581677647#1" to="708546342" modes="public"/>
    </person>
    <person id="ped165" depart="174.05" type="ped_pedestrian">
        <personTrip from="586124055" to="-53529919#2" modes="public"/>
    </person>
    <person id="ped166" depart="175.10" type="ped_pedestrian">
        <personTrip from="579671856#1" to="-187122892#9" modes="public"/>
    </person>
    <person id="ped167" depart="176.16" type="ped_pedestrian">
        <personTrip from="72077947#1" to="70130339#3" modes="public"/>
    </person>
    <person id="ped168" depart="177.21" type="ped_pedestrian">
        <personTrip from="-38568629" to="590751241" modes="public"/>
    </person>
    <person id="ped169" depart="178.27" type="ped_pedestrian">
        <personTrip from="143308549#2" to="-629992782" modes="public"/>
    </person>
    <person id="ped170" depart="179.32" type="ped_pedestrian">
        <personTrip from="579837678" to="-38574189#4" modes="public"/>
    </person>
    <person id="ped171" depart="180.38" type="ped_pedestrian">
        <personTrip from="-138624469#4" to="-314415495#15" modes="public"/>
    </person>
    <person id="ped172" depart="181.43" type="ped_pedestrian">
        <personTrip from="-769408287#0" to="708753754" modes="public"/>
    </person>
    <person id="ped173" depart="182.49" type="ped_pedestrian">
        <personTrip from="843190001#10" to="-579202701#0" modes="public"/>
    </person>
    <person id="ped174" depart="183.54" type="ped_pedestrian">
        <personTrip from="318210361#0" to="138624445#5" modes="public"/>
    </person>
    <person id="ped175" depart="184.60" type="ped_pedestrian">
        <personTrip from="843544572#9" to="213883652" modes="public"/>
    </person>
    <person id="ped176" depart="185.65" type="ped_pedestrian">
        <personTrip from="840221735#1" to="-206579064#0" modes="public"/>
    </person>
    <person id="ped177" depart="186.71" type="ped_pedestrian">
        <personTrip from="843190009#1" to="-278500217#1" modes="public"/>
    </person>
    <person id="ped178" depart="187.76" type="ped_pedestrian">
        <personTrip from="843189997#3" to="-53529557#0" modes="public"/>
    </person>
    <person id="ped179" depart="188.81" type="ped_pedestrian">
        <personTrip from="-187123053#1" to="142575701#0" modes="public"/>
    </person>
    <person id="ped180" depart="189.87" type="ped_pedestrian">
        <personTrip from="52081075#3" to="-702305701#0" modes="public"/>
    </person>
    <person id="ped181" depart="190.92" type="ped_pedestrian">
        <personTrip from="26842432#1" to="175357042" modes="public"/>
    </person>
    <person id="ped182" depart="191.98" type="ped_pedestrian">
        <personTrip from="128648607" to="24733617#3" modes="public"/>
    </person>
    <person id="ped183" depart="193.03" type="ped_pedestrian">
        <personTrip from="-5060708#6" to="443454551" modes="public"/>
    </person>
    <person id="ped184" depart="194.09" type="ped_pedestrian">
        <personTrip from="-114024905" to="840221717#2" modes="public"/>
    </person>
    <person id="ped185" depart="195.14" type="ped_pedestrian">
        <personTrip from="225232900" to="47765623#0" modes="public"/>
    </person>
    <person id="ped186" depart="196.20" type="ped_pedestrian">
        <personTrip from="53529255#7" to="38159999#6" modes="public"/>
    </person>
    <person id="ped187" depart="197.25" type="ped_pedestrian">
        <personTrip from="114024900" to="-143308686#0" modes="public"/>
    </person>
    <person id="ped188" depart="198.31" type="ped_pedestrian">
        <personTrip from="356594543" to="-77761467#0" modes="public"/>
    </person>
    <person id="ped189" depart="199.36" type="ped_pedestrian">
        <personTrip from="-702305701#1" to="678739630#1" modes="public"/>
    </person>
    <person id="ped190" depart="200.42" type="ped_pedestrian">
        <personTrip from="47765623#2" to="-586124080" modes="public"/>
    </person>
    <person id="ped191" depart="201.47" type="ped_pedestrian">
        <personTrip from="-686320800#2" to="141968810#0" modes="public"/>
    </person>
    <person id="ped192" depart="202.53" type="ped_pedestrian">
        <personTrip from="138624469#8" to="-586124055" modes="public"/>
    </person>
    <person id="ped193" depart="203.58" type="ped_pedestrian">
        <personTrip from="-23919022#1" to="142575677#0" modes="public"/>
    </person>
    <person id="ped194" depart="204.64" type="ped_pedestrian">
        <personTrip from="840221735#15" to="38574189#0" modes="public"/>
    </person>
    <person id="ped195" depart="205.69" type="ped_pedestrian">
        <personTrip from="822173804" to="27087569#3" modes="public"/>
    </person>
    <person id="ped196" depart="206.75" type="ped_pedestrian">
        <personTrip from="-590751236#2" to="231626692#1" modes="public"/>
    </person>
    <person id="ped197" depart="207.80" type="ped_pedestrian">
        <personTrip from="-114024903#0" to="-581636333#0" modes="public"/>
    </person>