<?xml version="1.0" encoding="UTF-8"?>
<!-- generated on 2020-10-02 14:42:56.811110 by routeSampler.py v1_7_0+0429-d0750758f4
  options: -r vehroutes.xml <doubleminus>edgedata-files edgecounts.xml <doubleminus>turn-files turncounts.xml -o passenger.sampled2.rou.xml
-->
<routes xmlns:xsi="http://www.w3.org/2001/XMLSchema-instance" xsi:noNamespaceSchemaLocation="http://sumo.dlr.de/xsd/routes_file.xsd">
<!-- begin="0.0" end="3600.0" -->
    <vehicle id="0" depart="0.00">
        <route edges="40191606#2 40191606#3 40191606#4 40191606#5 414563781 40191607#1 40191607#2"/>
    </vehicle>
    <vehicle id="1" depart="1.34">
        <route edges="40191606#2 40191606#3 40191606#4 40191606#5 414563781 40191607#1 40191607#2"/>
    </vehicle>
    <vehicle id="2" depart="2.68">
        <route edges="38568632#1 -38568632#1 -38568632#0 138624477#1 138624477#2 138624477#3 138624477#4 -138624469#0 -138624452#0 52460499#0 52460499#1 52460499#2 52460499#3 52460499#4 52460499#5 52460499#6 52460499#7 52460499#8 52460499#9 52460499#10 52460499#11 52460499#12 141968913#0 141968913#1 141968844#5 141968844#0 141968844#1 141968823#0 141968823#1 141968853#0 141968853#1 141968853#2 141968853#3 141968853#4 46150483#0 46150483#1 206579057 206579058#1 46039050#0 46039050#4 46039050#7 143308542#0 143308542#1 143308542#3 143308542#4 143308542#6 143308542#7 143308542#8 143308542#11 143308542#15 143308542#16 143308542#17 143308542#18 143308542#19 143308552#1 143308549#1 143308549#2 143308549#3 52036180#1 52036180#2 52036180#4 72230304#1 461514282#0 461514282#1 204721578#0 204721578#1 146511461#0 146511461#2 146511461#3 146511461#4 146511461#5 146511461#6 146511461#7 146511461#8 146511461#9 146511461#10"/>
    </vehicle>
    <vehicle id="3" depart="4.01">
        <route edges="52460499#6 52460499#7 52460499#8 52460499#9 52460499#10 52460499#11 52460499#12 141968913#0 141968913#1 141968844#5 141968844#0 141968844#1 141968823#0 141968823#1 141968853#0 141968853#1 141968853#2 141968853#3 141968853#4 46150483#0 46150483#1 206579057 206579058#1 46039050#0 46039050#4 46039050#7 143308542#0 143308542#1 143308542#3 143308542#4 143308542#6 143308542#7 143308542#8 143308542#11 143308542#15 143308542#16 143308542#17 143308542#18 143308542#19 143308552#1 143308549#1 143308549#2 143308549#3 52036180#1 52036180#2 52036180#4 40191607#1 40191607#2"/>
    </vehicle>
    <vehicle id="4" depart="5.35">
        <route edges="187123053#0 187123053#1 -152839428 45875465 679901152#0 206889086#1 152839448 541676219 318210389#0 670062912#1 81639675#1 81639675#2 81639675#3 81639675#4 -318210361#3 -318210361#0 -314415495#25 -314415495#22 -314415495#21 -314415495#20 -314415495#19 -314415495#17 -314415495#16 -314415495#15 -314415495#14 -314415495#13 -314415495#12 -314415495#11 -314415495#10 -314415495#9 -314415495#8 -314415495#7 -314415495#6 -314415495#5 -314415495#4 -142575709#1 -142575709#0 -137483015#0"/>
    </vehicle>
    <vehicle id="5" depart="6.69">
        <route edges="318210355 72230304#1 461514282#0 461514282#1 204721578#0 204721578#1 153021553#1 318210353 207086005 318210360#0 318210360#1 27087586#1 27087586#2 318210374 318210375#1 318210375#2 283006416#0 408709154#0 408709154#3"/>
    </vehicle>
    <vehicle id="6" depart="8.03">
        <route edges="40191606#2 40191606#3 40191606#4 40191606#5 414563781 40191607#1 40191607#2"/>
    </vehicle>
    <vehicle id="7" depart="9.36">
        <route edges="-52460499#2 52460499#2 52460499#3 52460499#4 52460499#5 52460499#6 52460499#7 52460499#8 52460499#9 52460499#10 52460499#11 52460499#12 141968913#0 141968913#1 141968844#5 141968844#0 141968844#1 141968823#0 141968823#1 141968853#0 141968853#1 141968853#2 141968853#3 141968853#4 46150483#0 46150483#1 206579057 206579058#1 46039050#0 46039050#4 46039050#7 143308542#0 143308542#1 143308542#3 143308542#4 143308542#6 143308542#7 143308542#8 143308542#11 143308542#15 143308542#16 143308542#17 143308542#18 143308542#19 143308552#1 143308549#1 143308549#2 143308549#3 52036180#1 52036180#2 52036180#4 40191607#1 40191607#2"/>
    </vehicle>
    <vehicle id="8" depart="10.70">
        <route edges="-138624421#14 138624421#14 138624426 -138624432 52460499#7 52460499#8 52460499#9 52460499#10 52460499#11 52460499#12 141968913#0 141968913#1 141968844#5 141968844#0 141968844#1 141968823#0 141968823#1 141968853#0 141968853#1 141968853#2 141968853#3 141968853#4 46150483#0 46150483#1 206579057 206579058#1 46039050#0 46039050#4 46039050#7 143308542#0 143308542#1 143308542#3 143308542#4 143308542#6 143308542#7 143308542#8 143308542#11 143308542#15 143308542#16 143308542#17 143308542#18 143308542#19 143308552#1 143308549#1 143308549#2 143308549#3 52036180#1 52036180#2 52036180#4 -679901152#1 -45875465 152839428 24152326#0 24152326#1 -20553015#1 -20553015#0 -20553068#0"/>
    </vehicle>
    <vehicle id="9" depart="12.04">
        <route edges="-152839428 45875465 679901152#0 206889086#1 152839448 541676219 318210389#0 670062912#1 81639675#1 81639675#2 81639675#3 81639675#4 -318210361#3 -318210361#0 -314415495#25 -314415495#22 -314415495#21 142575656#0 142575656#1 142575656#3 142575656#4 142575704#6 142575704#7 142575704#8 142575704#10 142575704#11 142575704#12 142575704#13 142575704#14 142575704#15 38159999#6 -38159999#6"/>
    </vehicle>
    <vehicle id="10" depart="13.38">
        <route edges="143308521#11 143308521#12 143308521#13 -142575655#13 -142575655#12 -142575655#10 -142575655#7 -142575655#6 -142575655#5 -142575655#2 -142575655#1 -142575700#4 -142575700#3 -142575700#2 -142575700#1 -142575700#0 -334308447#6 -334308447#4 -334308447#1 -334308447#0 -318210394#0 -52080655#2 52036180#1 52036180#2 52036180#4 -679901152#1 -45875465 152839428 24152326#0 24152326#1 23925124#0 23925124#1"/>
    </vehicle>
    <vehicle id="11" depart="14.72">
        <route edges="40191606#2 40191606#3 40191606#4 40191606#5 414563781 40191607#1 40191607#2"/>
    </vehicle>
    <vehicle id="12" depart="16.05">
        <route edges="318210355 72230304#1 461514282#0 461514282#1 204721578#0 204721578#1 153021553#1 318210353 207086005 318210360#0 318210360#1 39969574#1 670062920 670062921 670062923 670062922 670062924 22762399#1 22928744#0 22928744#1 278500217#3 278500217#4 -22928688#3 -22928688#2 -22928688#1 -22928688#0 22928724"/>
    </vehicle>
    <vehicle id="13" depart="17.39">
        <route edges="318210355 72230304#1 461514282#0 461514282#1 204721578#0 204721578#1 153021553#1 318210353 207086005 318210360#0 318210360#1 27087586#1 27087586#2 318210374 318210375#1 318210375#2 283006416#0 408709154#0 408709154#3"/>
    </vehicle>
    <vehicle id="14" depart="18.73">
        <route edges="187123053#0 187123053#1 -152839428 45875465 679901152#0 206889086#1 152839448 541676219 318210389#0 670062912#1 81639675#1 81639675#2 81639675#3 81639675#4 670062909#1 670062908#1 670062907#1 670062907#2 670062907#3 670062907#4 670062907#5 670062907#6 670062907#9 677933664#5 677933664#7 143308546#1 143308546#2 143308546#3 143308546#4 143308546#5 143308546#9 143308546#10 143308546#11 670062902#2 670062902#3 143308587#0 143308587#1 24214694#3 24214694#4 24214694#5 190083618#0 -283317455#1 -190083616#1 -190083616#0 -169076556#3 -169076556#2 -169076556#1 -169076556#0 -73058506#3 -73058506#2 -73058506#1"/>
    </vehicle>
    <vehicle id="15" depart="20.07">
        <route edges="52081075#0 -52081075#2 143308542#11 143308542#15 143308542#16 143308542#17 143308542#18 143308542#19 143308552#1 143308549#1 143308549#2 143308549#3 52036180#1 52036180#2 52036180#4 -679901152#1 -45875465 152839428 -152839426"/>
    </vehicle>
    <vehicle id="16" depart="21.40">
        <route edges="318210355 72230304#1 461514282#0 461514282#1 204721578#0 204721578#1 153021553#1 318210353 207086005 318210360#0 318210360#1 27087586#1 27087586#2 318210374 318210375#1 318210375#2 283006416#0 408709154#0 408709154#3"/>
    </vehicle>
    <vehicle id="17" depart="22.74">
        <route edges="40191606#2 40191606#3 40191606#4 40191606#5 414563781 40191607#1 40191607#2"/>
    </vehicle>
    <vehicle id="18" depart="24.08">
        <route edges="46039050#0 46039050#4 46039050#7 143308542#0 143308542#1 143308542#3 143308542#4 143308542#6 143308542#7 143308542#8 143308542#11 143308542#15 143308542#16 143308542#17 143308542#18 143308542#19 143308552#1 143308549#1 143308549#2 143308549#3 52036180#1 52036180#2 52036180#4 72230304#1 461514282#0 461514282#1 204721578#0 204721578#1 153021549#0 153021549#1 153021549#2 153021549#3 153021549#4 153021549#6"/>
    </vehicle>
    <vehicle id="19" depart="25.42">
        <route edges="318210355 72230304#1 461514282#0 461514282#1 204721578#0 204721578#1 153021553#1 318210353 207086005 318210360#0 318210360#1 27087586#1 27087586#2 318210374 318210375#1 318210375#2 283006416#0 408709154#0 408709154#3"/>
    </vehicle>
    <vehicle id="20" depart="26.76">
        <route edges="40191606#2 40191606#3 40191606#4 40191606#5 414563781 40191607#1 40191607#2"/>
    </vehicle>
    <vehicle id="21" depart="28.09">
        <route edges="187123053#0 187123053#1 -152839428 45875465 679901152#0 206889086#1 152839448 541676219 318210389#0 670062912#1 81639675#1 81639675#2 81639675#3 81639675#4 -318210361#3 -318210361#0 -314415495#25 -314415495#22 -314415495#21 -314415495#20 -314415495#19 -314415495#17 -314415495#16 -314415495#15 -314415495#14 -314415495#13 -314415495#12 -314415495#11 -314415495#10 -314415495#9 -314415495#8 -314415495#7 -314415495#6 -314415495#5 -314415495#4 -142575709#1 -142575709#0 137483015#2 137483015#3 137483015#5"/>
    </vehicle>
    <vehicle id="22" depart="29.43">
        <route edges="318210355 72230304#1 461514282#0 461514282#1 204721578#0 204721578#1 153021553#1 318210353 207086005 318210360#0 318210360#1 39969574#1 670062920 670062921 670062923 670062922 670062924 22762399#1 22928744#0 22928744#1 278500217#3 278500217#4 -22928688#3 -22928688#2 -22928688#1 -22928688#0 22928724"/>
    </vehicle>
    <vehicle id="23" depart="30.77">
        <route edges="40191606#2 40191606#3 40191606#4 40191606#5 414563781 40191607#1 40191607#2"/>
    </vehicle>
    <vehicle id="24" depart="32.11">
        <route edges="40191606#2 40191606#3 40191606#4 40191606#5 414563781 40191607#1 40191607#2"/>
    </vehicle>
    <vehicle id="25" depart="33.44">
        <route edges="318210355 72230304#1 461514282#0 461514282#1 204721578#0 204721578#1 153021553#1 318210353 207086005 318210360#0 318210360#1 39969574#1 670062920 670062921 670062923 670062922 670062924 22762399#1 22928744#0 22928744#1 278500217#3 278500217#4 -22928688#3 -22928688#2 -22928688#1 -22928688#0 22928724"/>
    </vehicle>
    <vehicle id="26" depart="34.78">
        <route edges="318210355 72230304#1 461514282#0 461514282#1 204721578#0 204721578#1 153021553#1 318210353 207086005 318210360#0 318210360#1 39969574#1 670062920 670062921 670062923 670062922 670062924 22762399#1 22928744#0 22928744#1 278500217#3 278500217#4 -22928688#3 -22928688#2 -22928688#1 -22928688#0 22928724"/>
    </vehicle>
    <vehicle id="27" depart="36.12">
        <route edges="318210355 72230304#1 461514282#0 461514282#1 204721578#0 204721578#1 153021553#1 318210353 207086005 318210360#0 318210360#1 27087586#1 27087586#2 318210374 318210375#1 318210375#2 283006416#0 408709154#0 408709154#3"/>
    </vehicle>
    <vehicle id="28" depart="37.46">
        <route edges="40191606#2 40191606#3 40191606#4 40191606#5 414563781 40191607#1 40191607#2"/>
    </vehicle>
    <vehicle id="29" depart="38.80">
        <route edges="-679901152#1 -45875465 152839428 -152839428 45875465 679901152#0 206889086#1 152839448 541676219 318210389#0 52080655#0 318210394#0 318210394#2 334308447#1 334308447#4 334308447#6 142575700#0 142575700#1 142575700#2 142575700#3 142575700#4 142575655#1 142575655#2 142575655#5 142575655#6 142575655#7 142575655#10 142575655#12 142575655#13 -143308521#13 -143308521#12 -143308521#11 -143308521#9 142575657#1 142575657#3 -142575657#3"/>
    </vehicle>
    <vehicle id="30" depart="40.13">
        <route edges="-52081075#4 -52081075#3 -52081075#2 143308542#11 143308542#15 143308542#16 143308542#17 143308542#18 143308542#19 143308552#1 143308549#1 143308549#2 143308549#3 52036180#1 52036180#2 52036180#4 40191607#1 40191607#2"/>
    </vehicle>
    <vehicle id="31" depart="41.47">
        <route edges="40191606#2 40191606#3 40191606#4 40191606#5 414563781 40191607#1 40191607#2"/>
    </vehicle>
    <vehicle id="32" depart="42.81">
        <route edges="187123053#0 187123053#1 -152839428 45875465 679901152#0 206889086#1 152839448 541676219 318210389#0 670062912#1 81639675#1 81639675#2 81639675#3 81639675#4 670062909#1 670062908#1 670062907#1 670062907#2 670062907#3 670062907#4 670062907#5 670062907#6 670062907#9 677933664#5 677933664#7 143308546#1 143308546#2 143308546#3 143308546#4 143308546#5 143308546#9 143308546#10 143308546#11 670062902#2 670062902#3 143308532#0 143308532#2 143308532#5 143308532#8 143308532#9 46039051#0 -141968853#4 -141968853#3 -141968853#2 -141968853#1 -141968853#0 141968814#0 141968814#1 141968844#3 141873658#0 141873658#1 -52460499#12 -52460499#11 -52460499#10 -52460499#9 38568628#0 38568628#1"/>
    </vehicle>
    <vehicle id="33" depart="44.15">
        <route edges="318210355 72230304#1 461514282#0 461514282#1 204721578#0 204721578#1 153021553#1 318210353 207086005 318210360#0 318210360#1 39969574#1 670062920 670062921 670062923 670062922 670062924 22762399#1 22928744#0 22928744#1 278500217#3 278500217#4 -22928688#3 -22928688#2 -22928688#1 -22928688#0 22928724"/>
    </vehicle>
    <vehicle id="34" depart="45.48">
        <route edges="318210355 72230304#1 461514282#0 461514282#1 204721578#0 204721578#1 153021553#1 318210353 207086005 318210360#0 318210360#1 27087586#1 27087586#2 318210374 318210375#1 318210375#2 283006416#0 408709154#0 408709154#3"/>
    </vehicle>
    <vehicle id="35" depart="46.82">
        <route edges="-142575688#8 -142575688#7 -142575688#6 -142575688#5 -142575688#4 -142575688#3 -142575688#2 -142575688#1 -142575688#0 142575674#3 143308542#11 143308542#15 143308542#16 143308542#17 143308542#18 143308542#19 143308552#1 143308549#1 143308549#2 143308549#3 52036180#1 52036180#2 52036180#4 72230304#1 461514282#0 461514282#1 204721578#0 204721578#1 153021549#0 153021549#1"/>
    </vehicle>
    <vehicle id="36" depart="48.16">
        <route edges="40191606#2 40191606#3 40191606#4 40191606#5 414563781 40191607#1 40191607#2"/>
    </vehicle>
    <vehicle id="37" depart="49.50">
        <route edges="318210355 72230304#1 461514282#0 461514282#1 204721578#0 204721578#1 153021553#1 318210353 207086005 318210360#0 318210360#1 27087586#1 27087586#2 318210374 318210375#1 318210375#2 283006416#0 408709154#0 408709154#3"/>
    </vehicle>
    <vehicle id="38" depart="50.84">
        <route edges="40191606#2 40191606#3 40191606#4 40191606#5 414563781 40191607#1 40191607#2"/>
    </vehicle>
    <vehicle id="39" depart="52.17">
        <route edges="40191606#2 40191606#3 40191606#4 40191606#5 414563781 40191607#1 40191607#2"/>
    </vehicle>
    <vehicle id="40" depart="53.51">
        <route edges="-52081075#4 -52081075#3 -52081075#2 143308542#11 143308542#15 143308542#16 143308542#17 143308542#18 143308542#19 143308552#1 143308549#1 143308549#2 143308549#3 52036180#1 52036180#2 52036180#4 40191607#1 40191607#2"/>
    </vehicle>
    <vehicle id="41" depart="54.85">
        <route edges="180789857#8 180789857#9 180789857#10 180789857#11 180789857#12 180789857#13 180789857#14 180789857#15 180789857#16 180789857#17 52081116#11 70130339#3 70130339#4 118262353#2 -38915290#2 -38915290#1 -318210378#9 -318210378#8 -318210378#7 -318210378#5 -318210378#4 -318210378#0 -318210377#0 -31050360#2 143308552#1 143308549#1 143308549#2 143308549#3 52036180#1 52036180#2 52036180#4 72230304#1 461514282#0 461514282#1 204721578#0 204721578#1 153021553#1 318210353 207086005 318210360#0 318210360#1 39969574#1 670062920 670062921 670062923 670062922 670062924 22762399#1 22928744#0 22928744#1 278500217#3 278500217#4 278500217#5 278500217#6 283317444#0 283317444#1 283317444#2 283317444#3 -22928648#1 -22928648#0 -283317443#2 -283317443#1 -283317443#0 -22928629 -94517926#0 5060708#1 5060708#2 5060708#3 5060708#4 5060708#5"/>
    </vehicle>
    <vehicle id="42" depart="56.19">
        <route edges="40191606#2 40191606#3 40191606#4 40191606#5 414563781 40191607#1 40191607#2"/>
    </vehicle>
    <vehicle id="43" depart="57.53">
        <route edges="40191606#2 40191606#3 40191606#4 40191606#5 414563781 40191607#1 40191607#2"/>
    </vehicle>
    <vehicle id="44" depart="58.86">
        <route edges="187123053#0 187123053#1 -152839428 45875465 679901152#0 206889086#1 152839448 541676219 318210389#0 670062912#1 81639675#1 81639675#2 81639675#3 81639675#4 670062909#1 670062908#1 670062907#1 670062907#2 670062907#3 670062907#4 670062907#5 670062907#6 670062907#9 677933664#5 677933664#7 143308546#1 143308546#2 143308546#3 143308546#4 143308546#5 143308546#9 143308546#10 143308546#11 670062902#2 670062902#3 143308532#0 143308532#2 143308532#5 -142575679#9 -142575679#8 -142575679#7 -142575679#6 142575679#6"/>
    </vehicle>
    <vehicle id="45" depart="60.20">
        <route edges="318210355 72230304#1 461514282#0 461514282#1 204721578#0 204721578#1 153021553#1 318210353 207086005 318210360#0 318210360#1 39969574#1 670062920 670062921 670062923 670062922 670062924 22762399#1 22928744#0 22928744#1 278500217#3 278500217#4 -22928688#3 -22928688#2 -22928688#1 -22928688#0 22928724"/>
    </vehicle>
    <vehicle id="46" depart="61.54">
        <route edges="138624445#15 138624445#16 138624445#17 138624445#18 138624421#32 138624421#33 52460499#11 52460499#12 141968913#0 141968913#1 141968844#5 141968844#0 141968844#1 141968823#0 141968823#1 141968853#0 141968853#1 141968853#2 141968853#3 141968853#4 46150483#0 46150483#1 206579057 206579058#1 46039050#0 46039050#4 46039050#7 143308542#0 143308542#1 143308542#3 143308542#4 143308542#6 143308542#7 143308542#8 143308542#11 143308542#15 143308542#16 143308542#17 143308542#18 143308542#19 143308552#1 143308549#1 143308549#2 143308549#3 52036180#1 52036180#2 52036180#4 72230304#1 461514282#0 461514282#1 204721578#0 204721578#1 146511461#0 146511461#2 146511461#3 146511461#4 187122892#1"/>
    </vehicle>
    <vehicle id="47" depart="62.88">
        <route edges="-152839428 45875465 679901152#0 206889086#1 152839448 541676219 318210389#0 670062912#1 81639675#1 81639675#2 81639675#3 81639675#4 -318210361#3 -318210361#0 -314415495#25 -314415495#22 -314415495#21 142575656#0 142575656#1 142575656#3 142575656#4 142575656#6 142575656#7 142575656#8 142575656#9 142575656#10 142575656#11 142575656#13 142575656#14 582467484#1 147859763#1 147859763#2 -147859763#2"/>
    </vehicle>
    <vehicle id="48" depart="64.21">
        <route edges="187123053#0 187123053#1 -152839428 45875465 679901152#0 206889086#1 152839448 541676219 318210389#0 670062912#1 81639675#1 81639675#2 81639675#3 81639675#4 670062909#1 670062908#1 670062907#1 670062907#2 670062907#3 670062907#4 670062907#5 670062907#6 670062907#9 677933664#5 677933664#7 143308546#1 143308546#2 143308546#3 143308546#4 143308546#5 143308546#9 143308546#10 143308546#11 670062902#2 670062902#3 143308532#0 143308532#2 143308532#5 -142575679#9 -142575679#8 -142575679#7 -142575679#6 142575679#6"/>
    </vehicle>
    <vehicle id="49" depart="65.55">
        <route edges="318210355 72230304#1 461514282#0 461514282#1 204721578#0 204721578#1 153021553#1 318210353 207086005 318210360#0 318210360#1 27087586#1 27087586#2 318210374 318210375#1 318210375#2 283006416#0 408709154#0 408709154#3"/>
    </vehicle>
    <vehicle id="50" depart="66.89">
        <route edges="-138624445#7 -138624432 52460499#7 52460499#8 52460499#9 52460499#10 52460499#11 52460499#12 141968913#0 141968913#1 141968844#5 141968844#0 141968844#1 141968823#0 141968823#1 141968853#0 141968853#1 141968853#2 141968853#3 141968853#4 46150483#0 46150483#1 206579057 206579058#1 46039050#0 46039050#4 46039050#7 143308542#0 143308542#1 143308542#3 143308542#4 143308542#6 143308542#7 143308542#8 143308542#11 143308542#15 143308542#16 143308542#17 143308542#18 143308542#19 143308552#1 143308549#1 143308549#2 143308549#3 52036180#1 52036180#2 52036180#4 -679901152#1 -45875465 152839428 -187123053#1 -187123053#0"/>
    </vehicle>
    <vehicle id="51" depart="68.23">
        <route edges="40191606#2 40191606#3 40191606#4 40191606#5 414563781 40191607#1 40191607#2"/>
    </vehicle>
    <vehicle id="52" depart="69.57">
        <route edges="143308549#3 670062912#1 81639675#1 81639675#2 81639675#3 81639675#4 -318210361#3 -318210361#0 -314415495#25 -314415495#22 -314415495#21 -314415495#20 -314415495#19 -314415495#17 -314415495#16 -314415495#15 -314415495#14 -314415495#13 -314415495#12 -314415495#11"/>
    </vehicle>
    <vehicle id="53" depart="70.90">
        <route edges="318210355 72230304#1 461514282#0 461514282#1 204721578#0 204721578#1 153021553#1 318210353 207086005 318210360#0 318210360#1 39969574#1 670062920 670062921 670062923 670062922 670062924 22762399#1 22928744#0 22928744#1 278500217#3 278500217#4 -22928688#3 -22928688#2 -22928688#1 -22928688#0 22928724"/>
    </vehicle>
    <vehicle id="54" depart="72.24">
        <route edges="40191606#2 40191606#3 40191606#4 40191606#5 414563781 40191607#1 40191607#2"/>
    </vehicle>
    <vehicle id="55" depart="73.58">
        <route edges="-52081075#4 -52081075#3 -52081075#2 143308542#11 143308542#15 143308542#16 143308542#17 143308542#18 143308542#19 143308552#1 143308549#1 143308549#2 143308549#3 52036180#1 52036180#2 52036180#4 40191607#1 40191607#2"/>
    </vehicle>
    <vehicle id="56" depart="74.92">
        <route edges="71028777#2 71028777#4 142575693#5 142575693#6 142575693#7 143308546#9 143308546#10 143308546#11 143308542#3 143308542#4 143308542#6 143308542#7 143308542#8 143308542#11 143308542#15 143308542#16 143308542#17 143308542#18 143308542#19 143308552#1 143308549#1 143308549#2 143308549#3 52036180#1 52036180#2 52036180#4 -679901152#1 -45875465 152839428 24152326#0 24152326#1 23925124#0 23925124#1 23925124#2 -166142951#1 -166142951#0 -137534616#4 -137534616#3 -137534616#2 -137534616#1 -137534616#0 23913524#0 23913524#1 23913524#2 187123437#0 187123437#1 229228933#0 229228933#1 229228933#2 -229228933#2"/>
    </vehicle>
    <vehicle id="57" depart="76.25">
        <route edges="40191606#2 40191606#3 40191606#4 40191606#5 414563781 40191607#1 40191607#2"/>
    </vehicle>
    <vehicle id="58" depart="77.59">
        <route edges="40191606#2 40191606#3 40191606#4 40191606#5 414563781 40191607#1 40191607#2"/>
    </vehicle>
    <vehicle id="59" depart="78.93">
        <route edges="40191606#2 40191606#3 40191606#4 40191606#5 414563781 40191607#1 40191607#2"/>
    </vehicle>
    <vehicle id="60" depart="80.27">
        <route edges="71028777#1 -71028777#1 -71028777#0 -24733698#1 -24733698#0 -142575689#1 -52081075#3 -52081075#2 143308542#11 143308542#15 143308542#16 143308542#17 143308542#18 143308542#19 143308552#1 143308549#1 143308549#2 143308549#3 142575672#0 142575672#3 142575672#4 318210373#0 318210373#1 318210373#2"/>
    </vehicle>
    <vehicle id="61" depart="81.61">
        <route edges="142575690#3 142575690#5 142575690#6 142575690#7 142575690#8 142575693#7 143308546#9 143308546#10 143308546#11 143308542#3 143308542#4 143308542#6 143308542#7 143308542#8 143308542#11 143308542#15 143308542#16 143308542#17 143308542#18 143308542#19 143308552#1 -318210361#3 -318210361#0 -314415495#25 -314415495#22 314415495#22"/>
    </vehicle>
    <vehicle id="62" depart="82.94">
        <route edges="141968799 141968830#0 141968830#1 141968830#2 141968810#0 141968810#1 141968844#1 141968823#0 141968823#1 141968853#0 141968853#1 141968853#2 141968853#3 141968853#4 46150483#0 46150483#1 206579057 206579058#1 46039050#0 46039050#4 46039050#7 143308542#0 143308542#1 143308542#3 143308542#4 143308542#6 143308542#7 143308542#8 143308542#11 143308542#15 143308542#16 143308542#17 143308542#18 143308542#19 143308552#1 143308549#1 143308549#2 143308549#3 52036180#1 52036180#2 52036180#4 -679901152#1 -45875465 152839428 24152326#0 24152326#1 23925124#0 23925124#1 23925124#2 -166142951#1 166142951#1"/>
    </vehicle>
    <vehicle id="63" depart="84.28">
        <route edges="-152839428 45875465 679901152#0 206889086#1 152839448 541676219 318210389#0 670062912#1 81639675#1 81639675#2 81639675#3 81639675#4 -318210361#3 -318210361#0 -314415495#25 -314415495#22 -314415495#21 142575656#0 142575656#1 142575656#3 142575656#4 142575704#6 142575704#7 142575704#8 142575704#10 142575704#11 142575704#12 142575704#13 142575704#14 142575704#15 38159999#6 -38159999#6"/>
    </vehicle>
    <vehicle id="64" depart="85.62">
        <route edges="318210355 72230304#1 461514282#0 461514282#1 204721578#0 204721578#1 153021553#1 318210353 207086005 318210360#0 318210360#1 27087586#1 27087586#2 318210374 318210375#1 318210375#2 283006416#0 408709154#0 408709154#3"/>
    </vehicle>
    <vehicle id="65" depart="86.96">
        <route edges="24733698#3 -24733698#3 -24733698#1 -24733698#0 -142575689#1 -52081075#3 -52081075#2 143308542#11 143308542#15 143308542#16 143308542#17 143308542#18 143308542#19 143308552#1 143308549#1 143308549#2 143308549#3 52036180#1 52036180#2 52036180#4 -679901152#1 -45875465 152839428 24152326#0 24152326#1 23925124#0 23925124#1 23925124#2 -166142951#1 -166142951#0 -137534616#4 -137534616#3 -137534616#2 -137534616#1 -137534616#0 23913524#0 23913524#1 23913524#2 187123437#0 187123437#1 229228933#0 229228933#1 229228933#2 -229228933#2"/>
    </vehicle>
    <vehicle id="66" depart="88.29">
        <route edges="187123053#0 187123053#1 -152839428 45875465 679901152#0 206889086#1 152839448 541676219 318210389#0 52080655#0 318210394#0 318210394#2 334308447#1 334308447#4 334308447#6 142575700#0 142575700#1 142575700#2 142575700#3 142575700#4 142575655#1 142575655#2 142575655#5 142575655#6 142575655#7 142575655#10 142575655#12 142575655#13 142575686#1 142575686#2"/>
    </vehicle>
    <vehicle id="67" depart="89.63">
        <route edges="318210355 72230304#1 461514282#0 461514282#1 204721578#0 204721578#1 153021553#1 318210353 207086005 318210360#0 318210360#1 27087586#1 27087586#2 318210374 318210375#1 318210375#2 283006416#0 408709154#0 408709154#3"/>
    </vehicle>
    <vehicle id="68" depart="90.97">
        <route edges="40191606#2 40191606#3 40191606#4 40191606#5 414563781 40191607#1 40191607#2"/>
    </vehicle>
    <vehicle id="69" depart="92.31">
        <route edges="318210355 72230304#1 461514282#0 461514282#1 204721578#0 204721578#1 153021553#1 318210353 207086005 318210360#0 318210360#1 39969574#1 670062920 670062921 670062923 670062922 670062924 22762399#1 22928744#0 22928744#1 278500217#3 278500217#4 -22928688#3 -22928688#2 -22928688#1 -22928688#0 22928724"/>
    </vehicle>
    <vehicle id="70" depart="93.65">
        <route edges="318210355 72230304#1 461514282#0 461514282#1 204721578#0 204721578#1 153021553#1 318210353 207086005 318210360#0 318210360#1 39969574#1 670062920 670062921 670062923 670062922 670062924 22762399#1 22928744#0 22928744#1 278500217#3 278500217#4 -22928688#3 -22928688#2 -22928688#1 -22928688#0 22928724"/>
    </vehicle>
    <vehicle id="71" depart="94.98">
        <route edges="40191606#2 40191606#3 40191606#4 40191606#5 414563781 40191607#1 40191607#2"/>
    </vehicle>
    <vehicle id="72" depart="96.32">
        <route edges="40191606#2 40191606#3 40191606#4 40191606#5 414563781 40191607#1 40191607#2"/>
    </vehicle>
    <vehicle id="73" depart="97.66">
        <route edges="318210355 72230304#1 461514282#0 461514282#1 204721578#0 204721578#1 153021553#1 318210353 207086005 318210360#0 318210360#1 39969574#1 670062920 670062921 670062923 670062922 670062924 22762399#1 22928744#0 22928744#1 278500217#3 278500217#4 -22928688#3 -22928688#2 -22928688#1 -22928688#0 22928724"/>
    </vehicle>
    <vehicle id="74" depart="99.00">
        <route edges="-138624421#9 -138624421#8 -138624421#6 -138624421#4 -138624421#1 -138624421#0 52460499#2 52460499#3 52460499#4 52460499#5 52460499#6 52460499#7 52460499#8 52460499#9 52460499#10 52460499#11 52460499#12 141968913#0 141968913#1 141968844#5 141968844#0 141968844#1 141968823#0 141968823#1 141968853#0 141968853#1 141968853#2 141968853#3 141968853#4 46150483#0 46150483#1 206579057 206579058#1 46039050#0 46039050#4 46039050#7 143308542#0 143308542#1 143308542#3 143308542#4 143308542#6 143308542#7 143308542#8 143308542#11 143308542#15 143308542#16 143308542#17 143308542#18 143308542#19 143308552#1 143308549#1 143308549#2 143308549#3 52036180#1 52036180#2 52036180#4 206889086#1 152839448 541676219"/>
    </vehicle>
    <vehicle id="75" depart="100.33">
        <route edges="187123053#0 187123053#1 -152839428 45875465 679901152#0 206889086#1 152839448 541676219 318210389#0 670062912#1 81639675#1 81639675#2 81639675#3 81639675#4 -318210361#3 -318210361#0 -314415495#25 -314415495#22 -314415495#21 -314415495#20 -314415495#19 -314415495#17 -314415495#16 -314415495#15 -314415495#14 -314415495#13 -314415495#12 -314415495#11 -314415495#10 -314415495#9 -314415495#8 -314415495#7 -314415495#6 -314415495#5 -314415495#4 -142575709#1 -142575709#0 137483015#2 137483015#3 137483015#5"/>
    </vehicle>
    <vehicle id="76" depart="101.67">
        <route edges="40191606#2 40191606#3 40191606#4 40191606#5 414563781 40191607#1 40191607#2"/>
    </vehicle>
    <vehicle id="77" depart="103.01">
        <route edges="52460499#6 52460499#7 52460499#8 52460499#9 52460499#10 52460499#11 52460499#12 141968913#0 141968913#1 141968844#5 141968844#0 141968844#1 141968823#0 141968823#1 141968853#0 141968853#1 141968853#2 141968853#3 141968853#4 46150483#0 46150483#1 206579057 206579058#1 46039050#0 46039050#4 46039050#7 143308542#0 143308542#1 143308542#3 143308542#4 143308542#6 143308542#7 143308542#8 143308542#11 143308542#15 143308542#16 143308542#17 143308542#18 143308542#19 143308552#1 143308549#1 143308549#2 143308549#3 52036180#1 52036180#2 52036180#4 40191607#1 40191607#2"/>
    </vehicle>