<?xml version="1.0" encoding="UTF-8"?>
<!-- generated on 2020-10-02 14:41:36.711416 by routeSampler.py v1_7_0+0429-d0750758f4
  options: -r vehroutes.xml <doubleminus>edgedata-files edgecounts.xml -o passenger.sampled.rou.xml
-->
<routes xmlns:xsi="http://www.w3.org/2001/XMLSchema-instance" xsi:noNamespaceSchemaLocation="http://sumo.dlr.de/xsd/routes_file.xsd">
<!-- begin="0.0" end="3600.0" -->
    <vehicle id="0" depart="0.00">
        <route edges="71028777#4 142575693#5 142575693#6 142575693#7 143308546#9 143308546#10 143308546#11 143308542#3 143308542#4 143308542#6 143308542#7 143308542#8 143308542#11 143308542#15 143308542#16 143308542#17 143308542#18 143308542#19 143308552#1 143308549#1 143308549#2 143308549#3 52036180#1 52036180#2 52036180#4 72230304#1 461514282#0 461514282#1 204721578#0 204721578#1 153021553#1 318210353 207086005 318210360#0"/>
    </vehicle>
    <vehicle id="1" depart="5.66">
        <route edges="22956997#6 52460499#0 52460499#1 52460499#2 52460499#3 52460499#4 52460499#5 52460499#6 52460499#7 52460499#8 52460499#9 52460499#10 52460499#11 52460499#12 141968913#0 141968913#1 141968844#5 141968844#0 141968844#1 141968823#0 141968823#1 141968853#0 141968853#1 141968853#2 141968853#3 141968853#4 46150483#0 46150483#1 206579057 206579058#1 46039050#0 46039050#4 46039050#7 143308542#0 143308542#1 143308542#3 143308542#4 143308542#6 143308542#7 143308542#8 143308542#11 143308542#15 143308542#16 143308542#17 143308542#18 143308542#19 143308552#1 143308549#1 143308549#2 143308549#3 52036180#1 52036180#2 52036180#4 -679901152#1 -45875465 152839428 24152326#0 24152326#1"/>
    </vehicle>
    <vehicle id="2" depart="11.32">
        <route edges="52460499#6 52460499#7 52460499#8 52460499#9 52460499#10 52460499#11 52460499#12 141968913#0 141968913#1 141968844#5 141968844#0 141968844#1 141968823#0 141968823#1 141968853#0 141968853#1 141968853#2 141968853#3 141968853#4 46150483#0 46150483#1 206579057 206579058#1 46039050#0 46039050#4 46039050#7 143308542#0 143308542#1 143308542#3 143308542#4 143308542#6 143308542#7 143308542#8 143308542#11 143308542#15 143308542#16 143308542#17 143308542#18 143308542#19 143308552#1 143308549#1 143308549#2 143308549#3 52036180#1 52036180#2 52036180#4 40191607#1 40191607#2"/>
    </vehicle>
    <vehicle id="3" depart="16.98">
        <route edges="-143308566#1 -143308566#0 71960633#1 71960633#2 190083616#0 190083616#1 318210395 -190083618#2 -24214694#5 -24214694#4 -24214694#3 143308590#0 143308542#0 143308542#1 143308542#3 143308542#4 143308542#6 143308542#7 143308542#8 143308542#11 143308542#15 143308542#16 143308542#17 143308542#18 143308542#19 143308552#1 143308549#1 143308549#2 143308549#3 52036180#1 52036180#2 52036180#4 -679901152#1 -45875465 152839428 24152326#0 24152326#1 23925124#0 23925124#1 23925124#2 -166142951#1 -166142951#0 20553068#0"/>
    </vehicle>
    <vehicle id="4" depart="22.64">
        <route edges="683972875#2 683972875#3 683972873#1 683972873#2 -318210394#0 -52080655#2 52036180#1 52036180#2 52036180#4 -679901152#1 -45875465 152839428 24152326#0 24152326#1 23925124#0 23925124#1 23925124#2 -166142951#1 -166142951#0 -137534616#4 -137534616#3 -137534616#2 -137534616#1 -137534616#0 23913524#0 23913524#1 149611514#8 149611514#9 20551905#1 20551905#2 20551905#3 20551905#4 98256382#0 98256382#1 98256382#2 98256382#3"/>
    </vehicle>
    <vehicle id="5" depart="28.30">
        <route edges="142575686#1 142575686#2 142575686#3 142575686#4 142575686#5 142575685#0 142575685#1 -142575655#13 -142575655#12 -142575655#10 -142575655#7 -142575655#6 -142575655#5 -142575655#2 -142575655#1 -142575700#4 -142575700#3 -142575700#2 -142575700#1 -142575700#0 -334308447#6 -334308447#4 -334308447#1 -334308447#0 -318210394#0 -52080655#2 52036180#1 52036180#2 52036180#4 72230304#1 461514282#0 461514282#1 204721578#0 204721578#1 153021553#1 318210353 207086005 318210360#0 318210360#1 27087586#1 27087586#2 318210374 40191605#5"/>
    </vehicle>
    <vehicle id="6" depart="33.96">
        <route edges="259466417#2 259466417#3 259466417#4 578659321#0 52081116#2 52081116#3 52081116#4 52081116#5 52081116#6 52081116#7 52081116#8 52081116#9 52081116#10 52081116#11 70130339#3 70130339#4 118262353#2 -38915290#2 -38915290#1 -318210378#9 -318210378#8 -318210378#7 -318210378#5 -318210378#4 -318210378#0 -318210377#0 -31050360#2 143308552#1 143308549#1 143308549#2 143308549#3 52036180#1 52036180#2 52036180#4 72230304#1 461514282#0 461514282#1 204721578#0 204721578#1 153021553#1 318210353 207086005 318210360#0 318210360#1 39969574#1 670062920 670062921 670062923 670062922 670062924 22762399#1 22928744#0 22928744#1 278500217#3 278500217#4 278500217#5 278500217#6 283317444#0 283317444#1 283317444#2 283317444#3 -22928648#1 -22928648#0 -283317443#2 -283317443#1 -283317443#0 -22928629 94517926#1 94517926#3 94517926#4 -19211030#4"/>
    </vehicle>
    <vehicle id="7" depart="39.62">
        <route edges="-142575704#14 -142575704#13 -142575704#12 -142575704#11 -142575704#10 -142575704#8 -142575704#7 -142575704#6 -142575704#4 -142575704#3 -142575704#2 -142575704#1 143308542#15 143308542#16 143308542#17 143308542#18 143308542#19 143308552#1 143308549#1 143308549#2 143308549#3 670062912#1 81639675#1 81639675#2 81639675#3"/>
    </vehicle>
    <vehicle id="8" depart="45.28">
        <route edges="118262353#2 -38915290#2 -38915290#1 -318210378#9 -318210378#8 -318210378#7 -318210378#5 -318210378#4 -318210378#0 -318210377#0 -31050360#2 143308552#1 -318210361#3 -318210361#0 -314415495#25 -314415495#22 -314415495#21 -314415495#20 -314415495#19 -314415495#17 -314415495#16 -314415495#15 -314415495#14 -314415495#13 -314415495#12 -314415495#11 -314415495#10 -314415495#9 -314415495#8 -314415495#7 -314415495#6 -314415495#5 -314415495#4 -314415495#3 -314415495#1 -314415495#0 48858192#1 318210388#0 -318210386#2 -81639678#0 -375685717#1 -375685717#0 -22729318#1 -22729318#0 152466402#20"/>
    </vehicle>
    <vehicle id="9" depart="50.94">
        <route edges="71028777#1 -71028777#1 -71028777#0 -24733698#1 -24733698#0 -142575689#1 -52081075#3 -52081075#2 143308542#11 143308542#15 143308542#16 143308542#17 143308542#18 143308542#19 143308552#1 143308549#1 143308549#2 143308549#3 142575672#0 142575672#3 142575672#4 318210373#0 318210373#1 318210373#2"/>
    </vehicle>
    <vehicle id="10" depart="56.60">
        <route edges="71028777#4 142575693#5 142575693#6 142575693#7 143308546#9 143308546#10 143308546#11 143308542#3 143308542#4 143308542#6 143308542#7 143308542#8 143308542#11 143308542#15 143308542#16 143308542#17 143308542#18 143308542#19 143308552#1 143308549#1 143308549#2 143308549#3 52036180#1 52036180#2 52036180#4 72230304#1 461514282#0 461514282#1 204721578#0 204721578#1 153021553#1 318210353 207086005 318210360#0"/>
    </vehicle>
    <vehicle id="11" depart="62.26">
        <route edges="802021414#5 -802021414#5 -802021414#3 -802021414#1 -52081075#8 -52081075#7 -52081075#4 -52081075#3 -52081075#2 143308542#11 143308542#15 143308542#16 143308542#17 143308542#18 143308542#19 143308552#1"/>
    </vehicle>
    <vehicle id="12" depart="67.92">
        <route edges="-135777011#5 135777011#5 206579063#0 206579063#1 46039050#0 46039050#4 46039050#7 143308542#0 143308542#1 143308542#3 143308542#4 143308542#6 143308542#7 143308542#8 143308542#11 143308542#15 143308542#16 143308542#17 143308542#18 143308542#19 143308552#1 143308549#1 143308549#2 143308549#3 52036180#1 52036180#2 52036180#4 72230304#1 461514282#0 461514282#1 204721578#0 204721578#1 153021553#1 318210353 207086005 318210360#0"/>
    </vehicle>
    <vehicle id="13" depart="73.58">
        <route edges="-142575679#8 142575679#8 142575679#9 46039050#4 46039050#7 143308542#0 143308542#1 143308542#3 143308542#4 143308542#6 143308542#7 143308542#8 143308542#11 143308542#15 143308542#16 143308542#17 143308542#18 143308542#19 143308552#1 143308549#1 143308549#2 143308549#3 52036180#1 52036180#2 52036180#4 72230304#1 461514282#0 461514282#1 204721578#0 204721578#1 146511461#0 146511461#2 146511461#3 146511461#4 187122892#1 187122892#2 187122892#3"/>
    </vehicle>
    <vehicle id="14" depart="79.25">
        <route edges="152447118#0 152447118#1 152447118#2 152447118#3 152447118#4 152447118#5 152447118#6 152447118#7 152447118#8 141968830#1 141968830#2 141968810#0 141968810#1 141968844#1 141968823#0 141968823#1 141968853#0 141968853#1 141968853#2 141968853#3 141968853#4 46150483#0 46150483#1 206579057 206579058#1 46039050#0 46039050#4 46039050#7 143308542#0 143308542#1 143308542#3 143308542#4 143308542#6 143308542#7 143308542#8 143308542#11 143308542#15 143308542#16 143308542#17 143308542#18 143308542#19 143308552#1 143308549#1 143308549#2 143308549#3 52036180#1 52036180#2 52036180#4 -679901152#1 -45875465 152839428 24152326#0 24152326#1 23925124#0 23925119#0 23925119#1 40191606#2 40191606#3 40191606#4"/>
    </vehicle>
    <vehicle id="15" depart="84.91">
        <route edges="143308542#4 143308542#6 143308542#7 143308542#8 143308542#11 143308542#15 143308542#16 143308542#17 143308542#18 143308542#19 143308552#1 143308549#1 143308549#2 143308549#3 52036180#1 52036180#2 52036180#4 206889086#1 152839448 541676219"/>
    </vehicle>
    <vehicle id="16" depart="90.57">
        <route edges="143308549#3 670062912#1 81639675#1 81639675#2 81639675#3 81639675#4 670062909#1 670062908#1 670062907#1 670062907#2 670062907#3 670062907#4 670062907#5 670062907#6 670062907#9 52081075#0 52081075#3 52081075#4 52081075#7"/>
    </vehicle>
    <vehicle id="17" depart="96.23">
        <route edges="141873658#0 141873658#1 141968913#0 141968913#1 141968844#5 141968844#0 141968844#1 141968823#0 141968823#1 141968853#0 141968853#1 141968853#2 141968853#3 141968853#4 46150483#0 46150483#1 206579057 206579058#1 46039050#0 46039050#4 46039050#7 143308542#0 143308542#1 143308542#3 143308542#4 143308542#6 143308542#7 143308542#8 143308542#11 143308542#15 143308542#16 143308542#17 143308542#18 143308542#19 143308552#1 143308549#1 143308549#2 143308549#3 52036180#1 52036180#2 52036180#4 -679901152#1 -45875465 152839428 24152326#0 24152326#1 23925124#0 23925124#1 23925124#2 -166142951#1 -166142951#0 -137534616#4 -137534616#3 -137534616#2 -137534616#1"/>
    </vehicle>
    <vehicle id="18" depart="101.89">
        <route edges="180789857#8 180789857#9 180789857#10 180789857#11 180789857#12 180789857#13 180789857#14 180789857#15 180789857#16 180789857#17 52081116#11 70130339#3 70130339#4 118262353#2 -38915290#2 -38915290#1 -318210378#9 -318210378#8 -318210378#7 -318210378#5 -318210378#4 -318210378#0 -318210377#0 -31050360#2 143308552#1 143308549#1 143308549#2 143308549#3 52036180#1 52036180#2 52036180#4 72230304#1 461514282#0 461514282#1 204721578#0 204721578#1 153021553#1 318210353 207086005 318210360#0 318210360#1 39969574#1 670062920 670062921 670062923 670062922 670062924 22762399#1 22928744#0 22928744#1 278500217#3 278500217#4 278500217#5 278500217#6 283317444#0 283317444#1 283317444#2 283317444#3 -22928648#1 -22928648#0 -283317443#2 -283317443#1 -283317443#0 -22928629 -94517926#0 5060708#1 5060708#2 5060708#3 5060708#4 5060708#5"/>
    </vehicle>
    <vehicle id="19" depart="107.55">
        <route edges="143308601#0 -334170244 71960633#1 71960633#2 190083616#0 190083616#1 318210395 -190083618#2 -24214694#5 -24214694#4 -24214694#3 143308590#0 143308542#0 143308542#1 143308542#3 143308542#4 143308542#6 143308542#7 143308542#8 143308542#11 143308542#15 143308542#16 143308542#17 143308542#18 143308542#19 143308552#1 143308549#1 143308549#2 143308549#3 52036180#1 52036180#2 52036180#4 -679901152#1 -45875465 152839428 -187123053#1 -187123053#0"/>
    </vehicle>
    <vehicle id="20" depart="113.21">
        <route edges="71028777#4 142575693#5 142575693#6 142575693#7 143308546#9 143308546#10 143308546#11 143308542#3 143308542#4 143308542#6 143308542#7 143308542#8 143308542#11 143308542#15 143308542#16 143308542#17 143308542#18 143308542#19 143308552#1 143308549#1 143308549#2 143308549#3 52036180#1 52036180#2 52036180#4 72230304#1 461514282#0 461514282#1 204721578#0 204721578#1 153021553#1 318210353 207086005 318210360#0"/>
    </vehicle>
    <vehicle id="21" depart="118.87">
        <route edges="46039050#0 46039050#4 46039050#7 143308542#0 143308542#1 143308542#3 143308542#4 143308542#6 143308542#7 143308542#8 143308542#11 143308542#15 143308542#16 143308542#17 143308542#18 143308542#19 143308552#1 143308549#1 143308549#2 143308549#3 52036180#1 52036180#2 52036180#4 72230304#1 461514282#0 461514282#1 204721578#0 204721578#1 153021549#0 153021549#1 153021549#2 153021549#3 153021549#4 153021549#6"/>
    </vehicle>
    <vehicle id="22" depart="124.53">
        <route edges="-135777011#5 135777011#5 206579063#0 206579063#1 46039050#0 46039050#4 46039050#7 143308542#0 143308542#1 143308542#3 143308542#4 143308542#6 143308542#7 143308542#8 143308542#11 143308542#15 143308542#16 143308542#17 143308542#18 143308542#19 143308552#1 143308549#1 143308549#2 143308549#3 52036180#1 52036180#2 52036180#4 72230304#1 461514282#0 461514282#1 204721578#0 204721578#1 146511461#0 146511461#2 146511461#3 146511461#4"/>
    </vehicle>
    <vehicle id="23" depart="130.19">
        <route edges="-138624421#9 -138624421#8 -138624421#6 -138624421#4 -138624421#1 -138624421#0 52460499#2 52460499#3 52460499#4 52460499#5 52460499#6 52460499#7 52460499#8 52460499#9 52460499#10 52460499#11 52460499#12 141968913#0 141968913#1 141968844#5 141968844#0 141968844#1 141968823#0 141968823#1 141968853#0 141968853#1 141968853#2 141968853#3 141968853#4 46150483#0 46150483#1 206579057 206579058#1 46039050#0 46039050#4 46039050#7 143308542#0 143308542#1 143308542#3 143308542#4 143308542#6 143308542#7 143308542#8 143308542#11 143308542#15 143308542#16 143308542#17 143308542#18 143308542#19 143308552#1 143308549#1 143308549#2 143308549#3 52036180#1 52036180#2 52036180#4 206889086#1 152839448 541676219"/>
    </vehicle>
    <vehicle id="24" depart="135.85">
        <route edges="-138624445#7 -138624432 52460499#7 52460499#8 52460499#9 52460499#10 52460499#11 52460499#12 141968913#0 141968913#1 141968844#5 141968844#0 141968844#1 141968823#0 141968823#1 141968853#0 141968853#1 141968853#2 141968853#3 141968853#4 46150483#0 46150483#1 206579057 206579058#1 46039050#0 46039050#4 46039050#7 143308542#0 143308542#1 143308542#3 143308542#4 143308542#6 143308542#7 143308542#8 143308542#11 143308542#15 143308542#16 143308542#17 143308542#18 143308542#19 143308552#1 143308549#1 143308549#2 143308549#3 52036180#1 52036180#2 52036180#4 -679901152#1 -45875465 152839428 -187123053#1 -187123053#0"/>
    </vehicle>
    <vehicle id="25" depart="141.51">
        <route edges="180789857#8 180789857#9 180789857#10 180789857#11 180789857#12 180789857#13 180789857#14 180789857#15 180789857#16 180789857#17 52081116#11 70130339#3 70130339#4 118262353#2 -38915290#2 -38915290#1 -318210378#9 -318210378#8 -318210378#7 -318210378#5 -318210378#4 -318210378#0 -318210377#0 -31050360#2 143308552#1 143308549#1 143308549#2 143308549#3 52036180#1 52036180#2 52036180#4 72230304#1 461514282#0 461514282#1 204721578#0 204721578#1 153021553#1 318210353 207086005 318210360#0 318210360#1 39969574#1 670062920 670062921 670062923 670062922 670062924 22762399#1 22928744#0 22928744#1 278500217#3 278500217#4 278500217#5 278500217#6 283317444#0 283317444#1 283317444#2 283317444#3 -22928648#1 -22928648#0 -283317443#2 -283317443#1 -283317443#0 -22928629 -94517926#0 5060708#1 5060708#2 5060708#3 5060708#4 5060708#5"/>
    </vehicle>
    <vehicle id="26" depart="147.17">
        <route edges="71028777#2 71028777#4 142575693#5 142575693#6 142575693#7 143308546#9 143308546#10 143308546#11 143308542#3 143308542#4 143308542#6 143308542#7 143308542#8 143308542#11 143308542#15 143308542#16 143308542#17 143308542#18 143308542#19 143308552#1 143308549#1 143308549#2 143308549#3 52036180#1 52036180#2 52036180#4 -679901152#1 -45875465 152839428 24152326#0 24152326#1 23925124#0 23925124#1 23925124#2 -166142951#1 -166142951#0 -137534616#4 -137534616#3 -137534616#2 -137534616#1 -137534616#0 23913524#0 23913524#1 23913524#2 187123437#0 187123437#1 229228933#0 229228933#1 229228933#2 -229228933#2"/>
    </vehicle>
    <vehicle id="27" depart="152.83">
        <route edges="52081116#11 70130339#3 70130339#4 118262353#2 -38915290#2 -38915290#1 -318210378#9 -318210378#8 -318210378#7 -318210378#5 -318210378#4 -318210378#0 -318210377#0 -31050360#2 143308552#1 -318210361#3 -318210361#0 -314415495#25 -314415495#22 -314415495#21 -314415495#20 -314415495#19 -314415495#17 -314415495#16 -314415495#15 -314415495#14 -314415495#13 -314415495#12 -314415495#11 -314415495#10 -314415495#9 -314415495#8 -314415495#7 -314415495#6 -314415495#5 -314415495#4 -314415495#3 -314415495#1 -314415495#0 48858192#1 318210388#0 -318210386#2 -81639678#0 -375685717#1 -375685717#0 -169076542"/>
    </vehicle>
    <vehicle id="28" depart="158.49">
        <route edges="259433180 52081116#9 52081116#10 52081116#11 70130339#3 70130339#4 118262353#2 -38915290#2 -38915290#1 -318210378#9 -318210378#8 -318210378#7 -318210378#5 -318210378#4 -318210378#0 -318210377#0 -31050360#2 143308552#1 -318210361#3 -318210361#0 -314415495#25 -314415495#22 -314415495#21 -314415495#20 -314415495#19 -314415495#17 -314415495#16 -314415495#15 -314415495#14 -314415495#13 -314415495#12 -314415495#11 -314415495#10 -314415495#9 -314415495#8 -314415495#7 -314415495#6 -314415495#5 -314415495#4 -314415495#3 -314415495#1 -314415495#0 52243916#1 -43660343#1 -43660343#0 10735918#0 10735918#1 39969574#1 670062920 670062921 670062923 670062922 670062924 22762399#1 670062925"/>
    </vehicle>
    <vehicle id="29" depart="164.15">
        <route edges="169076556#1 169076556#2 169076556#3 190083616#0 190083616#1 318210395 -190083618#2 -24214694#5 -24214694#4 -24214694#3 143308590#0 143308542#0 143308542#1 143308542#3 143308542#4 143308542#6 143308542#7 143308542#8 143308542#11 143308542#15 143308542#16 143308542#17 143308542#18 143308542#19 143308552#1 143308549#1 143308549#2 143308549#3 670062912#1 81639675#1 81639675#2 81639675#3"/>
    </vehicle>
    <vehicle id="30" depart="169.81">
        <route edges="-142575657#3 -142575657#1 143308521#9 143308521#11 143308521#12 143308521#13 -142575655#13 -142575655#12 -142575655#10 -142575655#7 -142575655#6 -142575655#5 -142575655#2 -142575655#1 -142575700#4 -142575700#3 -142575700#2 -142575700#1 -142575700#0 -334308447#6 -334308447#4 -334308447#1 -334308447#0 -318210394#0 -52080655#2 52036180#1 52036180#2 52036180#4 72230304#1 461514282#0 461514282#1 204721578#0 204721578#1 153021549#0 153021549#1 153021549#2 149611514#0 149611514#1 -149611514#1"/>
    </vehicle>
    <vehicle id="31" depart="175.47">
        <route edges="259433182#6 259433182#7 578659322#1 313964778#0 313964778#1 313964778#2 -802021414#6 -802021414#5 -802021414#3 -802021414#1 -52081075#8 -52081075#7 -52081075#4 -52081075#3 -52081075#2 143308542#11 143308542#15 143308542#16 143308542#17 143308542#18 143308542#19 143308552#1 143308549#1 143308549#2 143308549#3 52036180#1 52036180#2 52036180#4 -679901152#1 -45875465 152839428 -152839426"/>
    </vehicle>
    <vehicle id="32" depart="181.13">
        <route edges="-142575672#3 -142575672#2 52036180#1 52036180#2 52036180#4 72230304#1 461514282#0 461514282#1 204721578#0 204721578#1 153021553#1 318210353 207086005 318210360#0 318210360#1 27087586#1 27087586#2 318210374 318210375#1 318210375#2 283006416#0 190928927#1 190928927#2 190928927#3 190928927#4 190928927#5 190928927#6 190928927#7 190928927#8 113575152#5"/>
    </vehicle>
    <vehicle id="33" depart="186.79">
        <route edges="-22956997#1 22956997#1 22956997#3 22956997#5 22956997#6 52460499#0 52460499#1 52460499#2 52460499#3 52460499#4 52460499#5 52460499#6 52460499#7 52460499#8 52460499#9 52460499#10 52460499#11 52460499#12 141968913#0 141968913#1 141968844#5 141968844#0 141968844#1 141968823#0 141968823#1 141968853#0 141968853#1 141968853#2 141968853#3 141968853#4 46150483#0 46150483#1 206579057 206579058#1 46039050#0 46039050#4 46039050#7 143308542#0 143308542#1 143308542#3 143308542#4 143308542#6 143308542#7 143308542#8 143308542#11 143308542#15 143308542#16 143308542#17 143308542#18 143308542#19 143308552#1 143308549#1 143308549#2 143308549#3 52036180#1 52036180#2 52036180#4 72230304#1 461514282#0 461514282#1 204721578#0 204721578#1 146511461#0 146511461#2 146511461#3 146511461#4 146511461#5 146511461#6 146511461#7 146511461#8 -146511461#8"/>
    </vehicle>
    <vehicle id="34" depart="192.45">
        <route edges="-52460499#2 52460499#2 52460499#3 52460499#4 52460499#5 52460499#6 52460499#7 52460499#8 52460499#9 52460499#10 52460499#11 52460499#12 141968913#0 141968913#1 141968844#5 141968844#0 141968844#1 141968823#0 141968823#1 141968853#0 141968853#1 141968853#2 141968853#3 141968853#4 46150483#0 46150483#1 206579057 206579058#1 46039050#0 46039050#4 46039050#7 143308542#0 143308542#1 143308542#3 143308542#4 143308542#6 143308542#7 143308542#8 143308542#11 143308542#15 143308542#16 143308542#17 143308542#18 143308542#19 143308552#1 143308549#1 143308549#2 143308549#3 52036180#1 52036180#2 52036180#4 40191607#1 40191607#2"/>
    </vehicle>
    <vehicle id="35" depart="198.11">
        <route edges="152447118#0 152447118#1 152447118#2 152447118#3 152447118#4 152447118#5 152447118#6 152447118#7 152447118#8 141968830#1 141968830#2 141968810#0 141968810#1 141968844#1 141968823#0 141968823#1 141968853#0 141968853#1 141968853#2 141968853#3 141968853#4 46150483#0 46150483#1 206579057 206579058#1 46039050#0 46039050#4 46039050#7 143308542#0 143308542#1 143308542#3 143308542#4 143308542#6 143308542#7 143308542#8 143308542#11 143308542#15 143308542#16 143308542#17 143308542#18 143308542#19 143308552#1 143308549#1 143308549#2 143308549#3 52036180#1 52036180#2 52036180#4 -679901152#1 -45875465 152839428 24152326#0 24152326#1 23925124#0 23925119#0 23925119#1 40191606#2 40191606#3 40191606#4"/>
    </vehicle>
    <vehicle id="36" depart="203.77">
        <route edges="142575688#11 -142575688#11 -142575688#10 -142575688#8 -142575688#7 -142575688#6 -142575688#5 -142575688#4 -142575688#3 -142575688#2 -142575688#1 -142575688#0 142575674#3 143308542#11 143308542#15 143308542#16 143308542#17 143308542#18 143308542#19 143308552#1 143308549#1 143308549#2 143308549#3 52036180#1 52036180#2 52036180#4 -679901152#1 -45875465 152839428 24152326#0 24152326#1 23925124#0 23925119#0 23925119#1"/>
    </vehicle>
    <vehicle id="37" depart="209.43">
        <route edges="38568632#1 -38568632#1 -38568632#0 138624477#1 138624477#2 138624477#3 138624477#4 -138624469#0 -138624452#0 52460499#0 52460499#1 52460499#2 52460499#3 52460499#4 52460499#5 52460499#6 52460499#7 52460499#8 52460499#9 52460499#10 52460499#11 52460499#12 141968913#0 141968913#1 141968844#5 141968844#0 141968844#1 141968823#0 141968823#1 141968853#0 141968853#1 141968853#2 141968853#3 141968853#4 46150483#0 46150483#1 206579057 206579058#1 46039050#0 46039050#4 46039050#7 143308542#0 143308542#1 143308542#3 143308542#4 143308542#6 143308542#7 143308542#8 143308542#11 143308542#15 143308542#16 143308542#17 143308542#18 143308542#19 143308552#1 143308549#1 143308549#2 143308549#3 52036180#1 52036180#2 52036180#4 72230304#1 461514282#0 461514282#1 204721578#0 204721578#1 146511461#0 146511461#2 146511461#3 146511461#4 146511461#5 146511461#6 146511461#7 146511461#8 146511461#9 146511461#10"/>
    </vehicle>
    <vehicle id="38" depart="215.09">
        <route edges="138624445#15 138624445#16 138624445#17 138624445#18 138624421#32 138624421#33 52460499#11 52460499#12 141968913#0 141968913#1 141968844#5 141968844#0 141968844#1 141968823#0 141968823#1 141968853#0 141968853#1 141968853#2 141968853#3 141968853#4 46150483#0 46150483#1 206579057 206579058#1 46039050#0 46039050#4 46039050#7 143308542#0 143308542#1 143308542#3 143308542#4 143308542#6 143308542#7 143308542#8 143308542#11 143308542#15 143308542#16 143308542#17 143308542#18 143308542#19 143308552#1 143308549#1 143308549#2 143308549#3 52036180#1 52036180#2 52036180#4 72230304#1 461514282#0 461514282#1 204721578#0 204721578#1 146511461#0 146511461#2 146511461#3 146511461#4 187122892#1"/>
    </vehicle>
    <vehicle id="39" depart="220.75">
        <route edges="313964778#1 313964778#2 -802021414#6 -802021414#5 -802021414#3 -802021414#1 -52081075#8 -52081075#7 -52081075#4 -52081075#3 -52081075#2 143308542#11 143308542#15 143308542#16 143308542#17 143308542#18 143308542#19 143308552#1 143308549#1 143308549#2 143308549#3 52036180#1 52036180#2 52036180#4 72230304#1 461514282#0 461514282#1 204721578#0 204721578#1 153021553#1 318210353 207086005 318210360#0 318210360#1 39969574#1 670062920 670062921 670062923 670062922 670062924 22762399#1 22928744#0 22928744#1 278500217#3 278500217#4 -22928688#3 -22928688#2 -22928688#1 -22928688#0 22928674#0 -22928698"/>
    </vehicle>
    <vehicle id="40" depart="226.42">
        <route edges="141968830#2 141968810#0 141968810#1 141968844#1 141968823#0 141968823#1 141968853#0 141968853#1 141968853#2 141968853#3 141968853#4 46150483#0 46150483#1 206579057 206579058#1 46039050#0 46039050#4 46039050#7 143308542#0 143308542#1 143308542#3 143308542#4 143308542#6 143308542#7 143308542#8 143308542#11 143308542#15 143308542#16 143308542#17 143308542#18 143308542#19 143308552#1 143308549#1 143308549#2 143308549#3 52036180#1 52036180#2 52036180#4 -679901152#1 -45875465 152839428 24152326#0 24152326#1 23925124#0 23925124#1 23925124#2 -166142951#1 -166142951#0 -137534616#4 -137534616#3 -137534616#2 -137534616#1 -137534616#0 23913524#0 23913524#1 149611514#8 149611514#9 20551905#1 20551905#2 20551905#3 20551905#4 20551905#5 20551905#6 -140964907"/>
    </vehicle>
    <vehicle id="41" depart="232.08">
        <route edges="-52460499#2 52460499#2 52460499#3 52460499#4 52460499#5 52460499#6 52460499#7 52460499#8 52460499#9 52460499#10 52460499#11 52460499#12 141968913#0 141968913#1 141968844#5 141968844#0 141968844#1 141968823#0 141968823#1 141968853#0 141968853#1 141968853#2 141968853#3 141968853#4 46150483#0 46150483#1 206579057 206579058#1 46039050#0 46039050#4 46039050#7 143308542#0 143308542#1 143308542#3 143308542#4 143308542#6 143308542#7 143308542#8 143308542#11 143308542#15 143308542#16 143308542#17 143308542#18 143308542#19 143308552#1 143308549#1 143308549#2 143308549#3 52036180#1 52036180#2 52036180#4 40191607#1 40191607#2"/>
    </vehicle>
    <vehicle id="42" depart="237.74">
        <route edges="-143308566#1 -143308566#0 71960633#1 71960633#2 190083616#0 190083616#1 318210395 -190083618#2 -24214694#5 -24214694#4 -24214694#3 143308590#0 143308542#0 143308542#1 143308542#3 143308542#4 143308542#6 143308542#7 143308542#8 143308542#11 143308542#15 143308542#16 143308542#17 143308542#18 143308542#19 143308552#1 143308549#1 143308549#2 143308549#3 52036180#1 52036180#2 52036180#4 -679901152#1 -45875465 152839428 24152326#0 24152326#1 23925124#0 23925124#1 23925124#2 -166142951#1 -166142951#0 20553068#0"/>
    </vehicle>
    <vehicle id="43" depart="243.40">
        <route edges="180789857#8 180789857#9 180789857#10 180789857#11 180789857#12 180789857#13 180789857#14 180789857#15 180789857#16 180789857#17 52081116#11 70130339#3 70130339#4 118262353#2 -38915290#2 -38915290#1 -318210378#9 -318210378#8 -318210378#7 -318210378#5 -318210378#4 -318210378#0 -318210377#0 -31050360#2 143308552#1 143308549#1 143308549#2 143308549#3 52036180#1 52036180#2 52036180#4 72230304#1 461514282#0 461514282#1 204721578#0 204721578#1 153021553#1 318210353 207086005 318210360#0 318210360#1 39969574#1 670062920 670062921 670062923 670062922 670062924 22762399#1 22928744#0 22928744#1 278500217#3 278500217#4 278500217#5 278500217#6 283317444#0 283317444#1 283317444#2 283317444#3 -22928648#1 -22928648#0 -283317443#2 -283317443#1 -283317443#0 -22928629 -94517926#0 5060708#1 5060708#2 5060708#3 5060708#4 5060708#5"/>
    </vehicle>
    <vehicle id="44" depart="249.06">
        <route edges="118262353#2 -38915290#2 -38915290#1 -318210378#9 -318210378#8 -318210378#7 -318210378#5 -318210378#4 -318210378#0 -318210377#0 -31050360#2 143308552#1 -318210361#3 -318210361#0 -314415495#25 -314415495#22 -314415495#21 -314415495#20 -314415495#19 -314415495#17 -314415495#16 -314415495#15 -314415495#14 -314415495#13 -314415495#12 -314415495#11 -314415495#10 -314415495#9 -314415495#8 -314415495#7 -314415495#6 -314415495#5 -314415495#4 -314415495#3 -314415495#1 -314415495#0 48858192#1 318210388#0 -318210386#2 -81639678#0 -375685717#1 -375685717#0 -22729318#1 -22729318#0 152466402#20"/>
    </vehicle>
    <vehicle id="45" depart="254.72">
        <route edges="138624445#15 138624445#16 138624445#17 138624445#18 138624421#32 138624421#33 52460499#11 52460499#12 141968913#0 141968913#1 141968844#5 141968844#0 141968844#1 141968823#0 141968823#1 141968853#0 141968853#1 141968853#2 141968853#3 141968853#4 46150483#0 46150483#1 206579057 206579058#1 46039050#0 46039050#4 46039050#7 143308542#0 143308542#1 143308542#3 143308542#4 143308542#6 143308542#7 143308542#8 143308542#11 143308542#15 143308542#16 143308542#17 143308542#18 143308542#19 143308552#1 143308549#1 143308549#2 143308549#3 52036180#1 52036180#2 52036180#4 72230304#1 461514282#0 461514282#1 204721578#0 204721578#1 146511461#0 146511461#2 146511461#3 146511461#4 187122892#1"/>
    </vehicle>
    <vehicle id="46" depart="260.38">
        <route edges="-135777011#5 135777011#5 206579063#0 206579063#1 46039050#0 46039050#4 46039050#7 143308542#0 143308542#1 143308542#3 143308542#4 143308542#6 143308542#7 143308542#8 143308542#11 143308542#15 143308542#16 143308542#17 143308542#18 143308542#19 143308552#1 143308549#1 143308549#2 143308549#3 52036180#1 52036180#2 52036180#4 72230304#1 461514282#0 461514282#1 204721578#0 204721578#1 146511461#0 146511461#2 146511461#3 146511461#4"/>
    </vehicle>
    <vehicle id="47" depart="266.04">