<?xml version="1.0" encoding="UTF-8"?>

<!-- generated on Wed 30 Sep 2020 04:31:15 PM CEST by Eclipse SUMO netedit Version v1_7_0+0375-c22f861558
<configuration xmlns:xsi="http://www.w3.org/2001/XMLSchema-instance" xsi:noNamespaceSchemaLocation="http://sumo.dlr.de/xsd/netconvertConfiguration.xsd">

    <input>
        <sumo-net-file value="osm.net.xml"/>
    </input>

    <output>
        <output-file value="osm.net.xml"/>
        <output.street-names value="true"/>
    </output>

    <processing>
        <geometry.min-radius.fix.railways value="false"/>
        <geometry.max-grade.fix value="false"/>
        <offset.disable-normalization value="true"/>
        <lefthand value="false"/>
    </processing>

    <junctions>
        <no-internal-links value="false"/>
        <no-turnarounds value="true"/>
        <junctions.corner-detail value="5"/>
        <junctions.limit-turn-speed value="5.5"/>
        <rectangular-lane-cut value="false"/>
    </junctions>

    <pedestrian>
        <walkingareas value="true"/>
    </pedestrian>

    <netedit>
        <additional-files value="/home/kobo/dlr/SUMO2020/02_netedit/osm_stops.add.xml"/>
    </netedit>

    <report>
        <aggregate-warnings value="5"/>
    </report>

</configuration>
-->

<additional xmlns:xsi="http://www.w3.org/2001/XMLSchema-instance" xsi:noNamespaceSchemaLocation="http://sumo.dlr.de/xsd/additional_file.xsd">
    <busStop id="-1094134880" lane="-141968799_1" startPos="401.10" endPos="416.10" name="Johannes-Sasse-Ring" friendlyPos="1" lines="160"/>
    <busStop id="-1383533494" lane="-23913524#2_1" startPos="75.80" endPos="90.80" name="Büchnerweg" friendlyPos="1" lines="164 162"/>
    <busStop id="-1383533578" lane="-137534616#0_1" startPos="26.31" endPos="41.31" friendlyPos="1" lines="164 162"/>
    <busStop id="-1553912606" lane="-141968830#1_1" startPos="29.08" endPos="44.08" name="Akeleiweg" friendlyPos="1" lines="160"/>
    <busStop id="-1560223555" lane="-314415495#3_1" startPos="89.28" endPos="104.28" friendlyPos="1" lines="260"/>
    <busStop id="-1560223790" lane="-314415495#6_1" startPos="0.00" endPos="14.09" name="Wilhelm-Ostwald-Straße" friendlyPos="1" lines="260"/>
    <busStop id="-1906421953" lane="-45875465_1" startPos="33.45" endPos="41.28" name="S Adlershof" friendlyPos="1" lines="N65 N68 N60"/>
    <busStop id="-385200818" lane="-314415495#16_1" startPos="0.00" endPos="9.00" name="Albert-Einstein-Straße" friendlyPos="1" lines="260"/>
    <busStop id="-4922203169" lane="-5060708#8_1" startPos="11.51" endPos="26.51" name="Rosenweg" friendlyPos="1" lines="N62"/>
    <busStop id="-4922203176" lane="-94517926#5_1" startPos="222.97" endPos="237.97" name="Friedrich-Wolf-Straße" friendlyPos="1" lines="N62"/>
    <busStop id="-4922203178" lane="-5060708#3_1" startPos="37.88" endPos="52.88" name="Betonwerk" friendlyPos="1" lines="N62"/>
    <busStop id="-766875150" lane="-179699939#0_0" startPos="246.96" endPos="271.96" name="Marktplatz Adlershof" friendlyPos="1">
        <access lane="-149611534#0_0" pos="217.35" length="123.24" friendlyPos="1"/>
        <access lane="-23788323_0" pos="6.93" length="41.98" friendlyPos="1"/>
        <access lane="140964924_0" pos="206.49" length="147.37" friendlyPos="1"/>
        <access lane="149611534#0_0" pos="0.00" length="118.47" friendlyPos="1"/>
        <access lane="23788323_0" pos="214.12" length="29.38" friendlyPos="1"/>
    </busStop>
    <busStop id="-851572693" lane="-46150481#0_1" startPos="12.23" endPos="27.23" friendlyPos="1" lines="162 164"/>
    <busStop id="-942861696" lane="-144909690#1_1" startPos="12.41" endPos="27.41" name="Altglienicker Brücke" friendlyPos="1" lines="163 260"/>
    <busStop id="-94487924" lane="-144909690#0_1" startPos="109.53" endPos="124.53" name="Altglienicke Kirche" friendlyPos="1" lines="163 260"/>
    <busStop id="-945142208" lane="-318210378#5_1" startPos="7.39" endPos="22.39" name="Hans-Schmidt-Straße" friendlyPos="1" lines="163"/>
    <busStop id="1383533459" lane="24152326#0_1" startPos="60.22" endPos="75.22" name="Abtstraße" friendlyPos="1" lines="164 162"/>
    <busStop id="1383533461" lane="318210360#0_1" startPos="60.37" endPos="75.37" friendlyPos="1" lines="163 N68"/>
    <busStop id="1383533462" lane="204721579#1_1" startPos="90.15" endPos="105.15" friendlyPos="1" lines="163 N68"/>
    <busStop id="1383533471" lane="461514289#0_0" startPos="664.20" endPos="689.20" name="Betonwerk" friendlyPos="1" lines="68">
        <access lane="-31952783_0" pos="76.52" length="67.79" friendlyPos="1"/>
        <access lane="-5060708#3_0" pos="37.90" length="5.39" friendlyPos="1"/>
        <access lane="-747191447#1_0" pos="4.59" length="66.44" friendlyPos="1"/>
        <access lane="31952783_0" pos="0.00" length="63.16" friendlyPos="1"/>
        <access lane="5060708#3_0" pos="40.35" length="8.71" friendlyPos="1"/>
    </busStop>
    <busStop id="1383533479" lane="461514288#1_0" startPos="63.86" endPos="88.86" name="Betonwerk" friendlyPos="1" lines="68">
        <access lane="-31952783_0" pos="76.52" length="21.85" friendlyPos="1"/>
        <access lane="-5060708#3_0" pos="6.76" length="9.42" friendlyPos="1"/>
        <access lane="31952783_0" pos="0.00" length="17.79" friendlyPos="1"/>
        <access lane="5060708#3_0" pos="71.49" length="4.68" friendlyPos="1"/>
        <access lane="5060708#4_0" pos="0.00" length="24.73" friendlyPos="1"/>
    </busStop>
    <busStop id="1383533492" lane="23913524#2_1" startPos="38.06" endPos="53.06" name="Büchnerweg" friendlyPos="1" lines="164 162"/>
    <busStop id="1383533525" lane="461452916_0" startPos="792.10" endPos="817.10" name="Friedrich-Wolf-Straße" friendlyPos="1" lines="68">
        <access lane="-604587891#1_0" pos="24.98" length="81.23" friendlyPos="1"/>
        <access lane="-94517926#5_0" pos="230.40" length="5.16" friendlyPos="1"/>
        <access lane="604587889#1_0" pos="22.23" length="83.44" friendlyPos="1"/>
        <access lane="604587891#1_0" pos="10.13" length="87.85" friendlyPos="1"/>
        <access lane="94517926#5_0" pos="62.56" length="8.94" friendlyPos="1"/>
    </busStop>
    <busStop id="1383533575" lane="149611526#0_1" startPos="23.98" endPos="38.98" friendlyPos="1" lines="164 162"/>
    <busStop id="1383533577" lane="137534616#0_1" startPos="34.88" endPos="49.88" friendlyPos="1" lines="164 162"/>
    <busStop id="1383533580" lane="461452920_0" startPos="893.66" endPos="918.66" friendlyPos="1" lines="68"/>
    <busStop id="1383533590" lane="461514289#0_0" startPos="208.70" endPos="233.70" name="Rosenweg" friendlyPos="1" lines="68">
        <access lane="-5060708#8_0" pos="16.23" length="5.24" friendlyPos="1"/>
        <access lane="-5060708#9_0" pos="22.19" length="32.24" friendlyPos="1"/>
        <access lane="46771553#0_0" pos="96.56" length="29.72" friendlyPos="1"/>
        <access lane="5060708#8_0" pos="21.79" length="8.86" friendlyPos="1"/>
        <access lane="5060708#9_0" pos="0.00" length="32.89" friendlyPos="1"/>
    </busStop>
    <busStop id="1383533593" lane="461514288#1_0" startPos="516.32" endPos="541.32" name="Rosenweg" friendlyPos="1" lines="68">
        <access lane="-5060708#8_0" pos="0.00" length="20.74" friendlyPos="1"/>
        <access lane="-5060708#9_0" pos="14.71" length="9.03" friendlyPos="1"/>
        <access lane="46771553#0_0" pos="96.56" length="20.26" friendlyPos="1"/>
        <access lane="5060708#8_0" pos="38.02" length="19.23" friendlyPos="1"/>
        <access lane="5060708#9_0" pos="7.48" length="5.07" friendlyPos="1"/>
    </busStop>
    <busStop id="1383533597" lane="152839426_1" startPos="0.00" endPos="7.50" name="S Adlershof" friendlyPos="1" lines="N60 N65 N68"/>
    <busStop id="1560223236" lane="143308587#1_1" startPos="32.07" endPos="47.07" friendlyPos="1" lines="160 162 N60 164"/>
    <busStop id="1568240825" lane="81096611#0_1" startPos="34.02" endPos="49.02" name="Altglienicke Kirche" friendlyPos="1" lines="160 N60"/>
    <busStop id="1656195133" lane="206889086#1_1" startPos="21.84" endPos="29.35" name="S Adlershof" friendlyPos="1" lines="162 163 N60 164"/>
    <busStop id="1704693343" lane="158236729#0_0" startPos="0.00" endPos="9.73" name="Karl-Ziegler-Straße" friendlyPos="1" lines="61 63">
        <access lane="142575685#0_0" pos="57.40" length="9.48" friendlyPos="1"/>
        <access lane="142575686#3_0" pos="7.37" length="13.10" friendlyPos="1"/>
        <access lane="569694705#0_0" pos="0.20" length="16.12" friendlyPos="1"/>
        <access lane="569694705#2_0" pos="0.00" length="14.79" friendlyPos="1"/>
        <access lane="840221735#5_0" pos="51.89" length="13.26" friendlyPos="1"/>
    </busStop>
    <busStop id="1704693369" lane="220198810#6_0" startPos="30.08" endPos="42.57" name="Karl-Ziegler-Straße" friendlyPos="1" lines="61 63">
        <access lane="142575685#0_0" pos="25.02" length="13.37" friendlyPos="1"/>
        <access lane="142575686#4_0" pos="8.41" length="8.41" friendlyPos="1"/>
        <access lane="142575686#5_0" pos="0.00" length="11.84" friendlyPos="1"/>
        <access lane="397678504#3_0" pos="0.20" length="11.81" friendlyPos="1"/>
        <access lane="840221739#16_0" pos="8.03" length="13.61" friendlyPos="1"/>
    </busStop>
    <busStop id="1704693381" lane="220198810#0_0" startPos="6.09" endPos="31.09" name="Magnusstraße" friendlyPos="1" lines="61 63">
        <access lane="143308542#4_0" pos="60.49" length="23.98" friendlyPos="1"/>
        <access lane="143308542#6_0" pos="3.21" length="19.64" friendlyPos="1"/>
        <access lane="143308546#3_0" pos="52.12" length="20.40" friendlyPos="1"/>
        <access lane="143308546#4_0" pos="0.00" length="20.97" friendlyPos="1"/>
        <access lane="81096589#0_0" pos="4.38" length="10.05" friendlyPos="1"/>
    </busStop>
    <busStop id="1704693389" lane="220198808#0_0" startPos="15.48" endPos="37.96" name="Magnusstraße" friendlyPos="1" lines="61 63">
        <access lane="143308542#6_0" pos="49.99" length="15.58" friendlyPos="1"/>
        <access lane="143308542#7_0" pos="0.00" length="23.82" friendlyPos="1"/>
        <access lane="143308546#3_0" pos="5.74" length="24.46" friendlyPos="1"/>
        <access lane="81096580#0_0" pos="0.18" length="17.68" friendlyPos="1"/>
        <access lane="81096580#3_0" pos="0.00" length="15.40" friendlyPos="1"/>
    </busStop>
    <busStop id="1704693444" lane="179699938#3_0" startPos="33.49" endPos="49.70" name="S Adlershof" friendlyPos="1" lines="61 63">
        <access lane="220194458#3_0" pos="4.18" length="8.60" friendlyPos="1"/>
        <access lane="540221744_0" pos="0.43" length="10.75" friendlyPos="1"/>
        <access lane="540221756_0" pos="0.59" length="7.78" friendlyPos="1"/>
        <access lane="82710639#1_0" pos="0.20" length="10.66" friendlyPos="1"/>
        <access lane="82710639#2_0" pos="0.00" length="10.21" friendlyPos="1"/>
    </busStop>
    <busStop id="1704693451" lane="206889079#9_0" startPos="34.18" endPos="59.18" name="Walther-Nernst-Straße" friendlyPos="1" lines="61 63">
        <access lane="142575735#0_0" pos="6.74" length="11.39" friendlyPos="1"/>
        <access lane="143308542#17_0" pos="5.05" length="24.85" friendlyPos="1"/>
        <access lane="670062907#2_0" pos="12.57" length="24.30" friendlyPos="1"/>
        <access lane="670062907#3_0" pos="4.89" length="19.13" friendlyPos="1"/>
        <access lane="670062907#4_0" pos="0.00" length="24.81" friendlyPos="1"/>
    </busStop>
    <busStop id="1704693457" lane="220198808#3_0" startPos="94.72" endPos="114.68" name="Walther-Nernst-Straße" friendlyPos="1" lines="61 63">
        <access lane="143308542#18_0" pos="18.76" length="20.26" friendlyPos="1"/>
        <access lane="81096606#0_0" pos="0.20" length="12.70" friendlyPos="1"/>
        <access lane="81096606#2_0" pos="0.20" length="13.90" friendlyPos="1"/>
        <access lane="81096606#3_0" pos="0.20" length="11.57" friendlyPos="1"/>
        <access lane="81096606#4_0" pos="0.00" length="11.32" friendlyPos="1"/>
    </busStop>
    <busStop id="1756300980" lane="20553068#3_1" startPos="2.87" endPos="10.37" name="S Adlershof" friendlyPos="1"/>
    <busStop id="1862990707" lane="153021549#1_1" startPos="31.80" endPos="46.80" name="Otto-Franke-Straße" friendlyPos="1" lines="163 N68"/>
    <busStop id="2050022025" lane="70130339#1_1" startPos="76.75" endPos="91.75" name="Hermann-Dorner-Allee" friendlyPos="1" lines="163"/>
    <busStop id="2050022029" lane="231626692#1_1" startPos="168.37" endPos="183.37" name="Hermann-Dorner-Allee" friendlyPos="1" lines="163"/>
    <busStop id="2391105467" lane="318210373#0_1" startPos="16.01" endPos="31.01" friendlyPos="1"/>
    <busStop id="297194207" lane="113575152#13_1" startPos="46.94" endPos="61.94" friendlyPos="1" lines="164 162"/>
    <busStop id="301263813" lane="144909690#0_1" startPos="25.50" endPos="40.50" name="Altglienicke Kirche" friendlyPos="1" lines="163 260"/>
    <busStop id="301292770" lane="169076556#3_1" startPos="6.01" endPos="21.01" friendlyPos="1" lines="160 N60"/>
    <busStop id="301331956" lane="143308546#3_1" startPos="39.41" endPos="54.41" name="Magnusstraße" friendlyPos="1" lines="162 N60 164"/>
    <busStop id="30499115" lane="4782367_0" startPos="0.00" endPos="182.81" name="S Adlershof" friendlyPos="1" lines="S45 S8 S9 S46 S85">
        <access lane="540388566_0" pos="0.10" length="39.37" friendlyPos="1"/>
        <access lane="540388567#0_0" pos="0.00" length="34.25" friendlyPos="1"/>
        <access lane="540388567#1_0" pos="0.00" length="37.11" friendlyPos="1"/>
        <access lane="72230304#1_0" pos="81.62" length="42.65" friendlyPos="1"/>
        <access lane="85088365_0" pos="10.28" length="39.96" friendlyPos="1"/>
    </busStop>
    <busStop id="306982602" lane="143308542#6_1" startPos="14.23" endPos="29.23" name="Magnusstraße" friendlyPos="1" lines="162 164 N60"/>
    <busStop id="3508654675" lane="22917995_0" startPos="0.00" endPos="55.51" name="S Adlershof" friendlyPos="1" lines="S45 S8 S9 S46 S85">
        <access lane="206889086#1_0" pos="9.18" length="10.31" friendlyPos="1"/>
        <access lane="218797686#0_0" pos="2.35" length="15.88" friendlyPos="1"/>
        <access lane="540221753_0" pos="0.26" length="15.77" friendlyPos="1"/>
        <access lane="540388579#1_0" pos="9.35" length="10.19" friendlyPos="1"/>
        <access lane="806903753_0" pos="3.92" length="16.36" friendlyPos="1"/>
    </busStop>
    <busStop id="3812676495" lane="153021553#1_1" startPos="32.30" endPos="47.30" name="Otto-Franke-Straße" friendlyPos="1" lines="163 N68"/>
    <busStop id="3834046602" lane="190928927#2_1" startPos="22.83" endPos="37.83" friendlyPos="1" lines="164 162"/>
    <busStop id="3834046603" lane="113575152#2_1" startPos="10.57" endPos="25.57" name="Zinsgutstraße" friendlyPos="1" lines="164 162"/>
    <busStop id="3834046604" lane="190928927#13_1" startPos="0.00" endPos="13.97" name="Zinsgutstraße" friendlyPos="1" lines="164 162"/>
    <busStop id="385200819" lane="314415495#15_1" startPos="3.95" endPos="18.95" name="Albert-Einstein-Straße" friendlyPos="1" lines="260"/>
    <busStop id="3893875078" lane="204721578#0_1" startPos="44.07" endPos="59.07" name="Otto-Franke-Straße" friendlyPos="1"/>
    <busStop id="4457500796" lane="43661122_0" startPos="48.34" endPos="48.44" name="S Adlershof" friendlyPos="1">
        <access lane="-230625607#0_0" pos="0.00" length="10.04" friendlyPos="1"/>
        <access lane="-230625607#1_0" pos="41.50" length="17.84" friendlyPos="1"/>
        <access lane="-230625607#2_0" pos="0.00" length="14.19" friendlyPos="1"/>
        <access lane="230625607#0_0" pos="110.75" length="13.65" friendlyPos="1"/>
        <access lane="230625607#2_0" pos="45.99" length="10.76" friendlyPos="1"/>
    </busStop>
    <busStop id="464396487" lane="143308542#1_1" startPos="29.43" endPos="44.43" friendlyPos="1" lines="162 164 N60"/>
    <busStop id="464396566" lane="670062907#2_1" startPos="1.05" endPos="16.05" name="Walther-Nernst-Straße" friendlyPos="1" lines="162 N60 164"/>
    <busStop id="464396589" lane="143308542#18_1" startPos="1.10" endPos="16.10" name="Walther-Nernst-Straße" friendlyPos="1" lines="162 164 N60"/>
    <busStop id="4922203170" lane="5060708#9_1" startPos="2.32" endPos="17.32" name="Rosenweg" friendlyPos="1" lines="N62"/>
    <busStop id="4922203177" lane="94517926#5_1" startPos="100.17" endPos="115.17" name="Friedrich-Wolf-Straße" friendlyPos="1" lines="N62"/>
    <busStop id="4922203179" lane="5060708#3_1" startPos="65.17" endPos="80.17" name="Betonwerk" friendlyPos="1" lines="N62"/>
    <busStop id="5315085711" lane="806903753_1" startPos="0.00" endPos="4.19" name="S Adlershof" friendlyPos="1" lines="162 163 164 N60"/>
    <busStop id="5730442664" lane="80763814#2_0" startPos="17.02" endPos="42.02" name="S Adlershof" friendlyPos="1">
        <access lane="-230625607#0_0" pos="0.00" length="14.05" friendlyPos="1"/>
        <access lane="-230625607#1_0" pos="41.50" length="21.93" friendlyPos="1"/>
        <access lane="-230625607#2_0" pos="0.00" length="17.52" friendlyPos="1"/>
        <access lane="230625607#0_0" pos="110.75" length="18.06" friendlyPos="1"/>
        <access lane="230625607#2_0" pos="45.99" length="13.34" friendlyPos="1"/>
    </busStop>
    <busStop id="583899039" lane="218797686#0_1" startPos="0.00" endPos="12.50" name="S Adlershof" friendlyPos="1" lines="61 63"/>
    <busStop id="664208807" lane="314415495#6_1" startPos="42.35" endPos="57.35" name="Wilhelm-Ostwald-Straße" friendlyPos="1" lines="260"/>
    <busStop id="667031675" lane="461452916_0" startPos="300.82" endPos="325.82" friendlyPos="1" lines="68"/>
    <busStop id="671564316" lane="143308532#2_1" startPos="0.00" endPos="13.45" friendlyPos="1" lines="160"/>
    <busStop id="766875150" lane="179699939#0_0" startPos="165.42" endPos="190.42" name="Marktplatz Adlershof" friendlyPos="1">
        <access lane="-149611534#0_0" pos="217.35" length="123.24" friendlyPos="1"/>
        <access lane="-23788323_0" pos="6.93" length="41.98" friendlyPos="1"/>
        <access lane="140964924_0" pos="206.49" length="147.37" friendlyPos="1"/>
        <access lane="149611534#0_0" pos="0.00" length="118.47" friendlyPos="1"/>
        <access lane="23788323_0" pos="214.12" length="29.38" friendlyPos="1"/>
    </busStop>
    <busStop id="79408448" lane="461452920_0" startPos="421.34" endPos="446.34" name="Friedrich-Wolf-Straße" friendlyPos="1" lines="68">
        <access lane="-604587891#1_0" pos="24.98" length="126.84" friendlyPos="1"/>
        <access lane="-94517926#5_0" pos="191.95" length="8.51" friendlyPos="1"/>
        <access lane="19211030#0_0" pos="214.71" length="111.69" friendlyPos="1"/>
        <access lane="19211030#1_0" pos="0.00" length="117.23" friendlyPos="1"/>
        <access lane="94517926#5_0" pos="100.89" length="5.59" friendlyPos="1"/>
    </busStop>
    <busStop id="837696418" lane="143308532#8_1" startPos="27.03" endPos="42.03" name="James-Franck-Straße" friendlyPos="1" lines="160"/>
    <busStop id="837696524" lane="46039050#4_1" startPos="27.32" endPos="42.32" name="James-Franck-Straße" friendlyPos="1" lines="160"/>
    <busStop id="837696912" lane="141968853#1_1" startPos="9.35" endPos="24.35" name="Akeleiweg" friendlyPos="1" lines="160"/>
    <busStop id="837697182" lane="141968799_1" startPos="352.37" endPos="367.37" name="Johannes-Sasse-Ring" friendlyPos="1" lines="160"/>
    <busStop id="851572829" lane="81096611#1_1" startPos="76.35" endPos="91.35" name="Korkedamm" friendlyPos="1" lines="160 N60"/>
    <busStop id="852932398" lane="46150481#0_1" startPos="34.01" endPos="49.01" friendlyPos="1" lines="160 162 N60 164"/>
    <busStop id="94487938" lane="144909690#2_1" startPos="36.54" endPos="51.54" name="Altglienicker Brücke" friendlyPos="1" lines="163 260"/>
    <busStop id="945142098" lane="318210378#8_1" startPos="4.36" endPos="19.36" name="Hans-Schmidt-Straße" friendlyPos="1" lines="163"/>
    <busStop id="945142241" lane="314415495#1_1" startPos="28.80" endPos="43.80" friendlyPos="1" lines="260"/>
</additional>
