<?xml version="1.0" encoding="UTF-8"?>

<!-- generated on Wed Sep 30 16:05:13 2020 by Eclipse SUMO polyconvert Version 1.7.0
<configuration xmlns:xsi="http://www.w3.org/2001/XMLSchema-instance" xsi:noNamespaceSchemaLocation="http://sumo.dlr.de/xsd/polyconvertConfiguration.xsd">

    <input>
        <net-file value="osm.net.xml"/>
        <osm-files value="osm_bbox.osm.xml"/>
        <osm.keep-full-type value="true"/>
        <type-file value="/home/kobo/dlr/sumo/data/typemap/osmPolyconvert.typ.xml"/>
    </input>

    <output>
        <output-file value="osm.poly.xml"/>
    </output>

    <processing>
        <poi-layer-offset value="5"/>
    </processing>

    <report>
        <verbose value="true"/>
    </report>

</configuration>
-->

<additional xmlns:xsi="http://www.w3.org/2001/XMLSchema-instance" xsi:noNamespaceSchemaLocation="http://sumo.dlr.de/xsd/additional_file.xsd">
    <location netOffset="-397692.34,-5808296.97" convBoundary="-3618.30,-5129.22,7703.37,9748.79" origBoundary="13.439880,52.368780,13.609158,52.502328" projParameter="+proj=utm +zone=33 +ellps=WGS84 +datum=WGS84 +units=m +no_defs"/>

    <poly id="108052319" type="building.industrial" color="255,230,230" fill="1" layer="-1.00" shape="1475.958681,1085.394901 1506.790183,1079.644083 1519.615333,1148.456331 1487.550922,1154.432659 1483.652789,1133.516320 1484.716605,1133.316466 1483.309485,1125.734589 1478.627238,1126.609530 1476.586631,1115.669225 1480.137305,1115.006654 1478.899152,1108.367091 1480.193461,1108.129126 1475.958681,1085.394901"/>
    <poly id="113747178" type="historic.memorial" color="128,255,128" fill="1" layer="-1.00" shape="1433.671959,1178.270407 1354.951456,1193.762054 1351.057286,1174.058545 1429.778098,1158.566840 1433.671959,1178.270407"/>
    <poly id="114033003" type="amenity.parking" color="184,184,179" fill="1" layer="-1.00" shape="2369.864988,1420.610569 2364.267538,1415.939903 2359.542103,1412.008127 2381.707549,1385.542973 2386.536781,1389.561675 2392.030221,1394.134340 2369.864988,1420.610569"/>
    <poly id="114033007" type="amenity.parking" color="184,184,179" fill="1" layer="-1.00" shape="2373.730613,1424.070263 2379.169864,1428.655142 2384.913452,1433.489753 2407.403233,1406.917980 2401.611143,1402.039821 2396.227179,1397.498300 2373.730613,1424.070263"/>
    <poly id="114188889" type="landuse.industrial" color="209,209,204" fill="0" layer="-3.00" shape="2662.160093,1262.572157 2667.206613,1256.850828 2672.673329,1251.054226"/>
    <poly id="114207226" type="amenity.parking" color="184,184,179" fill="1" layer="-1.00" shape="2379.301778,1267.904163 2388.484432,1257.547589 2370.269083,1241.483769 2361.093234,1251.840239 2379.301778,1267.904163"/>
    <poly id="114207228" type="amenity.parking" color="184,184,179" fill="1" layer="-1.00" shape="2367.209380,1280.000072 2375.696416,1270.558886 2358.467121,1255.153791 2349.987114,1264.605990 2367.209380,1280.000072"/>
    <poly id="114207232" type="landuse.grass" color="194,194,130" fill="0" layer="-3.00" shape="2364.584833,1301.784010 2370.899044,1294.200668 2372.007773,1292.865162"/>
    <poly id="114207233" type="landuse.grass" color="194,194,130" fill="1" layer="-3.00" shape="2393.684049,1303.195095 2383.832147,1294.349359 2378.392305,1289.742230 2388.084877,1278.373876 2394.947172,1270.312099 2411.328968,1284.855532 2393.684049,1303.195095"/>
    <poly id="114207537" type="building.yes" color="255,230,230" fill="0" layer="-1.00" shape="2505.212737,1362.526447 2511.246202,1366.231515"/>
    <poly id="114285330" type="landuse.commercial" color="209,209,204" fill="0" layer="-3.00" shape="3251.637771,1267.934377 3254.960669,1270.815972 3255.874493,1271.609801 3258.505163,1273.893383 3261.343386,1276.350809"/>
    <poly id="114285335" type="leisure.playground" color="207,245,201" fill="1" layer="-2.00" shape="3253.302839,1231.761311 3252.017192,1239.854079 3249.445036,1244.523504 3247.068077,1242.679880 3245.815715,1241.625836 3244.310694,1244.571369 3239.060077,1241.550615 3239.272242,1238.241710 3252.123533,1227.245391 3253.302839,1231.761311"/>
    <poly id="114355949" type="amenity.parking" color="184,184,179" fill="0" layer="-1.00" shape="3271.049622,1259.487400 3266.210858,1255.301142 3270.751434,1250.091354 3272.890641,1251.950907 3273.535347,1251.203553 3274.253496,1250.387958 3272.308246,1248.702523 3278.637191,1241.442771 3283.268403,1245.455196"/>
    <poly id="114692653" type="building.yes" color="255,230,230" fill="0" layer="-1.00" shape="2583.155506,1259.779714 2582.821933,1259.430428 2581.399232,1261.050423"/>
    <poly id="114692655" type="building.yes" color="255,230,230" fill="1" layer="-1.00" shape="2557.498833,1241.663139 2567.272874,1243.667848 2566.089848,1249.388752 2556.315592,1247.372923 2557.498833,1241.663139"/>
    <poly id="114692702" type="landuse.commercial" color="209,209,204" fill="0" layer="-3.00" shape="2672.673329,1251.054226 2686.265362,1263.908215"/>
    <poly id="114693738" type="landuse.commercial" color="209,209,204" fill="0" layer="-3.00" shape="2566.481648,1235.850679 2514.773218,1250.864515 2506.526924,1255.093243 2499.245600,1259.947738 2485.614648,1273.665719 2477.831728,1287.643246 2474.649900,1297.755342 2468.727840,1305.230438 2463.117877,1308.649063 2454.891820,1310.184797"/>
    <poly id="114696373" type="landuse.industrial" color="209,209,204" fill="0" layer="-3.00" shape="2593.728678,1287.426526 2601.017918,1283.295250 2623.022468,1302.120349"/>
    <poly id="114697065" type="landuse.grass" color="194,194,130" fill="0" layer="-3.00" shape="2424.801918,1285.126879 2411.524456,1272.723394 2398.739151,1260.777261"/>
    <poly id="114697179" type="amenity.parking" color="184,184,179" fill="1" layer="-1.00" shape="2325.404117,1470.795443 2326.756325,1472.403564 2330.889313,1477.304264 2339.679620,1467.077956 2364.608454,1438.386776 2362.430212,1436.628543 2357.515359,1432.077523 2325.404117,1470.795443"/>
    <poly id="114697180" type="building.yes" color="255,230,230" fill="1" layer="-1.00" shape="2327.169434,1481.007275 2321.656506,1477.480996 2318.386893,1482.587952 2323.899592,1486.103105 2327.169434,1481.007275"/>
    <poly id="114814155" type="building.yes" color="255,230,230" fill="0" layer="-1.00" shape="2623.185539,1251.145442 2611.464334,1241.335774"/>
    <poly id="114952399" type="landuse.grass" color="194,194,130" fill="0" layer="-3.00" shape="2374.019668,1290.454249 2380.068285,1283.187869 2385.851521,1276.249570 2391.727697,1269.198121 2398.739151,1260.777261"/>
    <poly id="115478858" type="landuse.construction" color="194,194,130" fill="1" layer="-3.00" shape="1007.771215,2330.773014 985.500776,2328.506214 949.810431,2329.075567 868.540873,2286.690567 889.631230,2247.922997 894.169321,2239.461895 952.449099,2121.749591 1019.476578,2157.041400 1048.208104,2155.336430 1052.595605,2228.638852 1026.488020,2230.601266 1020.940759,2249.497800 1007.771215,2330.773014"/>
    <poly id="115758495" type="building.yes" color="255,230,230" fill="1" layer="-1.00" shape="3479.205148,1262.684922 3469.295166,1254.572602 3462.124785,1263.295493 3472.034762,1271.407800 3479.205148,1262.684922"/>
    <poly id="115758496" type="building.yes" color="255,230,230" fill="1" layer="-1.00" shape="3476.898116,1247.064956 3472.947579,1251.862120 3477.276644,1255.402352 3481.220607,1250.616451 3476.898116,1247.064956"/>
    <poly id="115758497" type="building.yes" color="255,230,230" fill="1" layer="-1.00" shape="3457.613733,1263.219332 3448.316196,1274.733324 3426.006584,1256.812031 3435.297308,1245.298133 3457.613733,1263.219332"/>
    <poly id="115758498" type="building.yes" color="255,230,230" fill="1" layer="-1.00" shape="3472.532324,1244.404470 3463.036066,1255.510742 3453.223329,1247.162836 3462.726381,1236.056409 3472.532324,1244.404470"/>
    <poly id="115758499" type="building.yes" color="255,230,230" fill="1" layer="-1.00" shape="3454.494289,1228.856135 3448.712475,1224.443885 3439.380265,1236.603936 3445.168873,1241.016039 3454.494289,1228.856135"/>
    <poly id="115921102" type="waterway.drain" color="181,209,209" fill="0" layer="-4.00" shape="2511.341962,1445.296263 2441.119628,1384.880400"/>
    <poly id="116174126" type="landuse.commercial" color="209,209,204" fill="0" layer="-3.00" shape="2454.891820,1310.184797 2424.801918,1285.126879"/>
    <poly id="116371687" type="building.yes" color="255,230,230" fill="0" layer="-1.00" shape="2562.066944,1323.630161 2557.515274,1330.265079 2554.921993,1332.854619 2550.074657,1335.645692"/>
    <poly id="116372813" type="building.yes" color="255,230,230" fill="0" layer="-1.00" shape="2562.066944,1323.630161 2560.291006,1324.600856 2558.198257,1325.377701 2555.437892,1325.767536 2553.098630,1325.792768 2550.741054,1325.250909 2548.649111,1324.392110 2546.549490,1323.155158 2544.217903,1320.543200 2542.887982,1318.355977 2542.157741,1315.889537 2541.770805,1313.916832 2541.797321,1310.867565 2542.658997,1307.411906 2544.650394,1304.322749 2547.201060,1301.978858 2549.892397,1300.533380 2552.828445,1299.750540 2556.295886,1299.680153 2560.157106,1300.914732 2562.735365,1302.275496"/>
    <poly id="116391626" type="landuse.grass" color="194,194,130" fill="1" layer="-3.00" shape="2684.646597,1178.687988 2691.636054,1186.935860 2705.937362,1197.527929 2715.535083,1191.503006 2714.971769,1186.529646 2712.547542,1183.708079 2707.935007,1186.349582 2693.756613,1174.775862 2694.800503,1172.584990 2690.064809,1171.835352 2684.646597,1178.687988"/>
    <poly id="116391627" type="building.yes" color="255,230,230" fill="1" layer="-1.00" shape="2665.449355,1177.563956 2664.879324,1171.255528 2667.635917,1171.010481 2667.216652,1166.434767 2672.716019,1165.933832 2673.712097,1176.817838 2665.449355,1177.563956"/>
    <poly id="116517353" type="leisure.playground" color="207,245,201" fill="1" layer="-2.00" shape="1259.166502,2123.743131 1297.595871,2116.410264 1298.185925,2106.740024 1298.797915,2096.813415 1299.158450,2090.864263 1261.740989,2084.913087 1261.737131,2086.048105 1261.726311,2087.505946 1259.425636,2122.124407 1259.166502,2123.743131"/>
    <poly id="118132032" type="building.university" color="255,230,230" fill="1" layer="-1.00" shape="2043.536479,1723.775942 2042.353418,1726.125583 2041.327616,1728.182718 2040.259447,1730.496635 2042.739512,1731.714480 2041.159913,1734.962357 2010.009451,1719.575547 2011.365610,1716.710532 2015.284918,1718.466452 2016.337678,1716.397633 2017.429413,1714.239005 2019.908811,1715.423472 2020.999627,1712.886553 2032.601190,1718.491338 2043.536479,1723.775942"/>
    <poly id="118132044" type="building.industrial" color="255,230,230" fill="1" layer="-1.00" shape="2004.159740,1697.218837 1996.400723,1712.932493 1994.669376,1712.077696 1992.732034,1711.126964 1944.867731,1687.603200 1952.626857,1671.900584 2004.159740,1697.218837"/>
    <poly id="118132050" type="landuse.construction" color="194,194,130" fill="1" layer="-3.00" shape="2601.102739,2487.219370 2510.760268,2590.129533 2546.055014,2614.725992 2595.724393,2580.036752 2735.608848,2469.825999 2845.432009,2385.964167 2898.168617,2342.003096 2939.355875,2304.262410 2986.208674,2263.169665 3013.208053,2237.699997 3076.291946,2162.466006 3077.998518,2160.428726 3070.270003,2155.221754 2956.018310,2090.147471 2929.277549,2119.016979 2842.275384,2216.623411 2920.759350,2287.903994 2797.299093,2387.918114 2734.267361,2337.889897 2667.052830,2411.943871 2734.067488,2467.253582 2655.937146,2531.403713 2601.102739,2487.219370"/>
    <poly id="118132057" type="amenity.research_institute" color="237,199,199" fill="0" layer="-1.00" shape="2108.229516,1629.747863 2077.687189,1695.206575"/>
    <poly id="118132057#1" type="landuse.commercial" color="209,209,204" fill="0" layer="-3.00" shape="2108.229516,1629.747863 2077.687189,1695.206575"/>
    <poly id="118132465" type="landuse.industrial" color="209,209,204" fill="1" layer="-3.00" shape="3481.124599,1183.947332 3471.415117,1185.811601 3440.938270,1214.986832 3389.763831,1277.936643 3333.533168,1345.417292 3451.197052,1443.967837 3466.528811,1456.544119 3584.643809,1553.441883 3713.650218,1409.031191 3713.565642,1404.815883 3655.157297,1348.374257 3613.001879,1307.428964 3516.796137,1210.145533 3504.736835,1198.315532 3504.447644,1200.847101 3493.085098,1191.873801 3481.124599,1183.947332"/>
    <poly id="118132466" type="building.office" color="255,230,230" fill="1" layer="-1.00" shape="3483.979604,1413.511183 3491.454057,1419.580685 3501.368916,1427.615056 3540.193882,1380.013484 3531.232880,1372.738729 3524.318502,1367.125227 3522.797279,1365.887367 3483.979604,1413.511183"/>
    <poly id="118132967" type="landuse.greenfield" color="242,242,204" fill="1" layer="-3.00" shape="2118.897664,1264.649815 2114.428871,1220.612128 2039.388713,1228.173357 1865.123952,1245.740712 1862.019439,1290.856564 1867.621734,1290.408251 2118.897664,1264.649815"/>
    <poly id="118132967#1" type="natural.grassland" color="140,196,107" fill="1" layer="-4.00" shape="2118.897664,1264.649815 2114.428871,1220.612128 2039.388713,1228.173357 1865.123952,1245.740712 1862.019439,1290.856564 1867.621734,1290.408251 2118.897664,1264.649815"/>
    <poly id="118132968" type="landuse.commercial" color="209,209,204" fill="1" layer="-3.00" shape="1690.166034,1269.937799 1840.927354,1281.217981 1831.287343,1403.542827 1668.380640,1391.532624 1690.166034,1269.937799"/>
    <poly id="118132968#1" type="shop.car" color="237,199,255" fill="1" layer="-1.00" shape="1690.166034,1269.937799 1840.927354,1281.217981 1831.287343,1403.542827 1668.380640,1391.532624 1690.166034,1269.937799"/>
    <poly id="118132969" type="man_made.wastewater_plant" color="255,230,230" fill="1" layer="-1.00" shape="2116.921456,1305.503126 2114.388977,1277.704435 2120.152434,1277.152985 2118.897664,1264.649815 1867.621734,1290.408251 1864.630386,1332.740093 1951.441227,1339.433947 1951.273665,1342.552870 1974.934680,1344.450848 1975.193808,1341.152028 2079.476663,1348.793263 2075.055702,1309.783926 2116.921456,1305.503126"/>
    <poly id="118132970" type="building.commercial" color="255,230,230" fill="1" layer="-1.00" shape="1805.459153,1369.833836 1805.695949,1366.446445 1807.104499,1346.189112 1831.318987,1347.874798 1833.437198,1317.410819 1785.137311,1314.048021 1783.013508,1344.556652 1800.839092,1345.805421 1799.429885,1366.029389 1799.199438,1369.394397 1698.824871,1362.302187 1697.374192,1382.805218 1696.704761,1392.298967 1733.302718,1394.876697 1736.940098,1395.136056 1759.274959,1396.715202 1761.672682,1396.888677 1779.791116,1398.164752 1784.770352,1398.519091 1827.696083,1401.546674 1829.816984,1371.549960 1805.459153,1369.833836"/>
    <poly id="118132971" type="landuse.commercial" color="209,209,204" fill="1" layer="-3.00" shape="1969.980345,1354.977808 1965.676921,1412.702454 1994.052547,1415.004949 2019.722726,1418.386486 2060.791426,1425.092452 2124.623598,1439.412654 2130.513512,1435.398204 2132.480048,1401.744114 2129.987721,1366.901346 1969.980345,1354.977808"/>
    <poly id="118133067" type="landuse.village_green" color="242,242,204" fill="1" layer="-3.00" shape="2079.476663,1348.793263 2079.676391,1352.249619 2092.698684,1353.441639 2129.090631,1356.927787 2128.880300,1354.951508 2124.522491,1314.015919 2124.092986,1309.963402 2116.921456,1305.503126 2075.055702,1309.783926 2079.476663,1348.793263"/>
    <poly id="118133068" type="building.yes" color="255,230,230" fill="1" layer="-1.00" shape="1989.159307,1328.238004 1975.596637,1327.235317 1977.591933,1300.367892 1985.125833,1300.915069 1985.669918,1293.582535 1991.705568,1294.037914 1989.159307,1328.238004"/>
    <poly id="118133069" type="building.yes" color="255,230,230" fill="1" layer="-1.00" shape="2096.940247,1296.942366 2078.631932,1298.706597 2076.948400,1281.194002 2095.257007,1279.440888 2096.940247,1296.942366"/>
    <poly id="118133070" type="natural.wetland" color="181,209,209" fill="1" layer="-4.00" shape="1998.626474,1289.212261 1995.574510,1334.627343 2073.297239,1340.284922 2067.232507,1282.048660 1998.626474,1289.212261"/>
    <poly id="118133071" type="natural.wetland" color="181,209,209" fill="1" layer="-4.00" shape="1951.371947,1331.045762 1913.395295,1327.915970 1870.560981,1324.396173 1871.901025,1302.104066 1954.066234,1293.448950 1951.371947,1331.045762"/>
    <poly id="118261965" type="waterway.drain" color="181,209,209" fill="0" layer="-4.00" shape="2200.385650,978.944996 2232.612195,1095.753926"/>
    <poly id="118377362" type="amenity.school" color="237,199,199" fill="1" layer="-1.00" shape="3694.970692,2053.417750 3668.357737,2037.384376 3646.558675,2025.037538 3593.988714,1993.503462 3563.491265,2032.592400 3566.910267,2034.537614 3578.418679,2041.394029 3599.330240,2053.903046 3623.477108,2068.361091 3627.008177,2070.470995 3612.744811,2088.960765 3596.910708,2109.484943 3573.874235,2146.888459 3612.319453,2170.694808 3652.725329,2196.320230 3710.425241,2117.642293 3754.759813,2146.227286 3782.894611,2107.976927 3694.970692,2053.417750"/>
    <poly id="118377496" type="amenity.kindergarten" color="237,199,199" fill="1" layer="-1.00" shape="3694.970692,2053.417750 3725.763775,2001.227627 3641.072145,1950.955018 3625.093403,1953.134092 3593.988714,1993.503462 3646.558675,2025.037538 3668.357737,2037.384376 3694.970692,2053.417750"/>
    <poly id="119776042" type="building.yes" color="255,230,230" fill="0" layer="-1.00" shape="2818.443412,1413.399575 2760.953663,1363.213996 2768.612419,1354.491270 2779.063189,1342.574269 2811.453669,1370.847837"/>
    <poly id="122666824" type="amenity.parking" color="184,184,179" fill="1" layer="-1.00" shape="2304.695472,1394.353142 2307.617292,1396.886218 2312.235136,1400.875769 2323.374629,1410.496288 2320.825700,1413.251956 2299.852145,1436.433000 2288.229511,1426.132508 2281.569146,1420.037089 2299.288489,1400.382620 2304.695472,1394.353142"/>
    <poly id="122868959" type="landuse.grass" color="194,194,130" fill="1" layer="-3.00" shape="2208.678510,1418.116570 2224.297231,1421.904214 2230.200908,1411.213542 2223.079949,1404.882791 2219.942316,1405.447403 2218.996366,1407.424982 2220.088240,1408.270631 2220.841761,1409.201059 2221.265770,1409.982423 2221.599128,1410.988170 2221.743479,1412.064527 2221.609532,1413.502608 2221.074005,1414.926616 2220.480014,1415.817729 2219.874014,1416.453172 2219.130454,1417.013529 2218.235056,1417.465710 2217.234505,1417.764260 2216.005744,1417.878302 2214.887579,1417.745303 2213.832869,1417.388477 2213.110845,1417.002620 2212.295453,1416.373876 2211.745891,1415.773098 2211.325732,1415.180811 2209.008715,1415.962376 2208.678510,1418.116570"/>
    <poly id="128648595" type="landuse.railway" color="194,194,130" fill="1" layer="-3.00" shape="2355.433394,1549.073288 2321.126526,1523.634481 2310.172813,1516.446955 2311.650241,1512.845196 2330.441784,1521.831560 2349.869532,1533.008151 2365.607425,1543.013666 2360.261016,1550.009878 2356.886307,1547.274578 2355.433394,1549.073288"/>
    <poly id="128648595#1" type="natural.grassland" color="140,196,107" fill="1" layer="-4.00" shape="2355.433394,1549.073288 2321.126526,1523.634481 2310.172813,1516.446955 2311.650241,1512.845196 2330.441784,1521.831560 2349.869532,1533.008151 2365.607425,1543.013666 2360.261016,1550.009878 2356.886307,1547.274578 2355.433394,1549.073288"/>
    <poly id="128648597" type="landuse.grass" color="194,194,130" fill="1" layer="-3.00" shape="2217.267852,1512.897495 2260.109044,1530.217308 2277.376652,1536.842243 2265.698637,1557.553249 2268.696635,1567.506306 2265.697662,1576.546668 2261.269577,1575.190345 2253.803869,1594.335760 2266.369464,1598.853296 2268.155667,1598.060309 2270.383314,1597.569885 2303.977599,1530.192198 2292.362584,1523.596762 2286.080741,1520.720399 2248.304722,1506.980177 2214.543279,1498.343538 2217.267852,1512.897495"/>
    <poly id="128648598" type="landuse.railway" color="194,194,130" fill="1" layer="-3.00" shape="2270.265138,1618.490623 2270.352143,1619.423500 2270.915500,1620.035130 2276.141022,1620.140155 2309.573641,1552.509877 2308.778251,1550.857048 2307.103558,1550.112257 2305.306490,1549.369956 2304.424714,1549.488042 2303.882180,1549.899647 2270.265138,1618.490623"/>
    <poly id="128648598#1" type="natural.grassland" color="140,196,107" fill="1" layer="-4.00" shape="2270.265138,1618.490623 2270.352143,1619.423500 2270.915500,1620.035130 2276.141022,1620.140155 2309.573641,1552.509877 2308.778251,1550.857048 2307.103558,1550.112257 2305.306490,1549.369956 2304.424714,1549.488042 2303.882180,1549.899647 2270.265138,1618.490623"/>
    <poly id="128648599" type="landuse.railway" color="194,194,130" fill="1" layer="-3.00" shape="2739.474324,1835.801165 2794.995282,1891.778762 2785.459631,1901.474145 2729.841272,1845.053559 2739.474324,1835.801165"/>
    <poly id="128648599#1" type="natural.grassland" color="140,196,107" fill="1" layer="-4.00" shape="2739.474324,1835.801165 2794.995282,1891.778762 2785.459631,1901.474145 2729.841272,1845.053559 2739.474324,1835.801165"/>
    <poly id="128648600" type="landuse.grass" color="194,194,130" fill="1" layer="-3.00" shape="2039.539018,1592.539138 2108.857644,1626.864343 2111.685499,1622.122302 2041.587931,1587.289991 2039.539018,1592.539138"/>
    <poly id="128648602" type="landuse.railway" color="194,194,130" fill="1" layer="-3.00" shape="2804.934680,1920.150923 2946.589672,2060.407244 2956.746059,2051.478490 2814.576580,1910.664835 2804.934680,1920.150923"/>
    <poly id="128648602#1" type="natural.grassland" color="140,196,107" fill="1" layer="-4.00" shape="2804.934680,1920.150923 2946.589672,2060.407244 2956.746059,2051.478490 2814.576580,1910.664835 2804.934680,1920.150923"/>
    <poly id="128648603" type="landuse.grass" color="194,194,130" fill="1" layer="-3.00" shape="2117.173585,1631.100977 2226.694687,1685.203885 2246.845954,1644.425534 2245.712902,1642.557057 2161.548080,1644.928220 2119.157943,1623.683458 2116.863934,1624.920799 2116.073065,1626.160872 2115.767398,1628.514856 2116.155162,1630.187094 2117.173585,1631.100977"/>
    <poly id="128648603#1" type="leisure.park" color="207,245,201" fill="1" layer="-2.00" shape="2117.173585,1631.100977 2226.694687,1685.203885 2246.845954,1644.425534 2245.712902,1642.557057 2161.548080,1644.928220 2119.157943,1623.683458 2116.863934,1624.920799 2116.073065,1626.160872 2115.767398,1628.514856 2116.155162,1630.187094 2117.173585,1631.100977"/>
    <poly id="128648604" type="landuse.railway" color="194,194,130" fill="1" layer="-3.00" shape="2557.141757,1682.089355 2566.227698,1674.027167 2578.155104,1681.306747 2589.373135,1689.157089 2610.172776,1707.005132 2643.970317,1740.667744 2681.641072,1778.546962 2671.553879,1787.875438 2615.214593,1731.581963 2581.172873,1698.970411 2569.662823,1690.135735 2557.141757,1682.089355"/>
    <poly id="128648604#1" type="natural.grassland" color="140,196,107" fill="1" layer="-4.00" shape="2557.141757,1682.089355 2566.227698,1674.027167 2578.155104,1681.306747 2589.373135,1689.157089 2610.172776,1707.005132 2643.970317,1740.667744 2681.641072,1778.546962 2671.553879,1787.875438 2615.214593,1731.581963 2581.172873,1698.970411 2569.662823,1690.135735 2557.141757,1682.089355"/>
    <poly id="128648612" type="landuse.railway" color="194,194,130" fill="1" layer="-3.00" shape="2182.042931,1809.598597 2262.330912,1648.026845 2259.473779,1646.660793 2256.544572,1646.097338 2176.559714,1807.184560 2176.686620,1808.405920 2180.121536,1810.427754 2181.168459,1810.406419 2182.042931,1809.598597"/>
    <poly id="128648612#1" type="natural.grassland" color="140,196,107" fill="1" layer="-4.00" shape="2182.042931,1809.598597 2262.330912,1648.026845 2259.473779,1646.660793 2256.544572,1646.097338 2176.559714,1807.184560 2176.686620,1808.405920 2180.121536,1810.427754 2181.168459,1810.406419 2182.042931,1809.598597"/>
    <poly id="129215054" type="leisure.pitch" color="207,245,201" fill="1" layer="-2.00" shape="2464.033521,1801.234256 2474.648588,1811.210672 2491.079926,1793.808383 2480.471657,1783.831794 2464.033521,1801.234256"/>
    <poly id="129215054#1" type="sport.beachvolleyball" color="79,230,125" fill="1" layer="-2.00" shape="2464.033521,1801.234256 2474.648588,1811.210672 2491.079926,1793.808383 2480.471657,1783.831794 2464.033521,1801.234256"/>
    <poly id="133858191" type="building.yes" color="255,230,230" fill="0" layer="-1.00" shape="2009.227760,1686.945493 2016.025864,1673.131901"/>
    <poly id="134100877" type="building.yes" color="255,230,230" fill="0" layer="-1.00" shape="2171.442063,1692.560606 2172.800363,1689.795737 2173.571065,1688.233408"/>
    <poly id="137482515" type="building.yes" color="255,230,230" fill="0" layer="-1.00" shape="2513.479202,1319.108889 2513.082386,1315.645402 2512.640078,1311.281571 2513.033965,1307.902168 2513.670082,1305.063055 2514.735887,1302.281978 2516.074349,1299.194941 2517.924289,1296.509209 2520.136605,1293.916259 2522.147620,1292.128524 2525.117058,1290.310202 2527.407259,1288.872856 2530.929647,1287.488380 2533.968136,1286.725702 2536.839111,1286.422624 2540.121184,1286.266976 2543.436750,1286.756002 2545.971568,1287.316513 2548.665896,1288.363364 2551.873051,1289.878257 2554.441758,1291.773294 2557.426274,1294.383130 2559.568199,1296.698523 2561.044029,1299.372365 2562.735365,1302.275496"/>
    <poly id="137482516" type="building.yes" color="255,230,230" fill="0" layer="-1.00" shape="2562.735365,1302.275496 2563.998515,1306.199851 2564.478184,1310.396025 2564.517837,1313.354935 2564.303648,1316.541531 2563.582226,1320.205747 2562.066944,1323.630161"/>
    <poly id="137482517" type="building.yes" color="255,230,230" fill="0" layer="-1.00" shape="2550.074657,1335.645692 2545.770181,1337.368708 2541.676546,1338.086041 2538.346690,1338.231532 2535.656628,1338.063614 2531.328091,1337.261360 2527.990176,1336.005051 2524.718239,1334.313463 2521.671161,1331.971958 2519.237106,1329.673641 2517.086795,1327.280549 2514.948839,1323.151434 2513.479202,1319.108889"/>
    <poly id="137482518" type="building.yes" color="255,230,230" fill="0" layer="-1.00" shape="2550.074657,1335.645692 2549.138148,1333.739776 2545.298951,1332.248844 2542.878883,1330.973893 2540.656005,1329.361136 2538.847179,1327.706594 2537.451728,1325.976900 2535.466251,1322.656933 2533.337487,1316.969879 2513.479202,1319.108889"/>
    <poly id="137482782" type="amenity.parking" color="184,184,179" fill="0" layer="-1.00" shape="3271.049622,1259.487400 3283.268403,1245.455196"/>
    <poly id="137482933" type="landuse.commercial" color="209,209,204" fill="0" layer="-3.00" shape="3240.554693,1258.332921 3251.637771,1267.934377"/>
    <poly id="137483015" type="landuse.residential" color="235,235,227" fill="0" layer="-3.00" shape="3253.219610,1285.671823 3250.381388,1283.214401 3246.837119,1280.148118 3238.696071,1273.091009 3225.750649,1261.869253 3223.722229,1260.107627 3209.759349,1248.016290"/>
    <poly id="137483016" type="landuse.residential" color="235,235,227" fill="0" layer="-3.00" shape="3261.343386,1276.350809 3253.219610,1285.671823"/>
    <poly id="137483017" type="landuse.residential" color="235,235,227" fill="0" layer="-3.00" shape="3217.883111,1238.695205 3209.759349,1248.016290"/>
    <poly id="137483018" type="landuse.commercial" color="209,209,204" fill="0" layer="-3.00" shape="3217.883111,1238.695205 3231.839197,1250.786701 3240.554693,1258.332921"/>
    <poly id="137483019" type="landuse.residential" color="235,235,227" fill="0" layer="-3.00" shape="3261.343386,1276.350809 3297.182050,1235.194205 3291.477949,1230.257616 3293.492327,1227.947184 3255.736086,1195.227838 3217.883111,1238.695205"/>
    <poly id="139110550" type="building.office" color="255,230,230" fill="1" layer="-1.00" shape="2847.223997,1873.541508 2834.332763,1886.130913 2835.443650,1887.254475 2833.483069,1889.174588 2832.344539,1888.029332 2822.355590,1897.845085 2832.062188,1907.673739 2850.743463,1926.455778 2852.162850,1925.013950 2860.139130,1916.896878 2861.864929,1915.137303 2845.431802,1897.889706 2847.979131,1895.390257 2858.322174,1884.922039 2856.453865,1883.001551 2848.286621,1874.632671 2847.223997,1873.541508"/>
    <poly id="142162515" type="building.yes" color="255,230,230" fill="1" layer="-1.00" shape="5252.005489,932.276210 5255.815959,923.043815 5262.150196,925.533474 5275.908753,930.947481 5289.392890,936.244550 5302.787946,941.510035 5309.362087,944.095156 5305.952477,953.308469 5252.005489,932.276210"/>
    <poly id="142162519" type="building.yes" color="255,230,230" fill="1" layer="-1.00" shape="5238.608749,917.631216 5229.632744,912.946206 5260.728374,852.838458 5269.731652,857.522989 5265.636586,865.436930 5258.016304,880.152043 5250.323911,895.002112 5242.481112,910.155583 5238.608749,917.631216"/>
    <poly id="142162521" type="building.yes" color="255,230,230" fill="1" layer="-1.00" shape="5272.559056,844.315592 5280.975138,847.509653 5296.381342,853.336258 5311.965830,859.237277 5327.975139,865.296859 5335.404125,868.109934 5338.935150,858.838619 5276.089983,835.044231 5272.559056,844.315592"/>
    <poly id="142162524" type="building.yes" color="255,230,230" fill="1" layer="-1.00" shape="5229.136225,859.570845 5220.257277,854.984071 5249.549109,794.455710 5258.632331,798.704709 5254.710951,806.804379 5247.482347,821.723175 5240.109911,836.934115 5232.913860,851.774407 5229.136225,859.570845"/>
    <poly id="142162547" type="building.apartments" color="255,230,230" fill="1" layer="-1.00" shape="5349.355807,936.407530 5369.682416,882.721579 5360.177447,879.148293 5357.597647,885.952990 5352.528872,899.338067 5347.512109,912.599732 5342.307628,926.343547 5339.850924,932.834284 5349.355807,936.407530"/>
    <poly id="142575660" type="building.university" color="255,230,230" fill="0" layer="-1.00" shape="2297.606644,1777.224916 2293.809890,1773.797265"/>