<?xml version="1.0" encoding="UTF-8"?>

<!-- generated on 05/02/19 15:20:05 by Eclipse SUMO duarouter Version v1_0_1+0593-c54b143026
<configuration xmlns:xsi="http://www.w3.org/2001/XMLSchema-instance" xsi:noNamespaceSchemaLocation="http://sumo.dlr.de/xsd/duarouterConfiguration.xsd">

    <input>
        <net-file value="osm.net.xml"/>
        <route-files value="osm.passenger.trips.xml"/>
    </input>

    <output>
        <output-file value="osm.passenger.trips.xml.tmp"/>
        <write-trips value="true"/>
    </output>

    <time>
        <begin value="0"/>
        <end value="3600.0"/>
    </time>

    <report>
        <no-warnings value="true"/>
        <ignore-errors value="true"/>
        <no-step-log value="true"/>
    </report>

</configuration>
-->

<routes xmlns:xsi="http://www.w3.org/2001/XMLSchema-instance" xsi:noNamespaceSchemaLocation="http://sumo.dlr.de/xsd/routes_file.xsd">
    <vType id="veh_passenger" vClass="passenger"/>
    <trip id="veh0" type="veh_passenger" depart="0.00" departLane="best" from="-23925122" to="-187122892#10"/>
    <trip id="veh1" type="veh_passenger" depart="2.60" departLane="best" from="190083608#3" to="149611514#8"/>
    <trip id="veh3" type="veh_passenger" depart="7.80" departLane="best" from="142575655#5" to="-142575656#8"/>
    <trip id="veh4" type="veh_passenger" depart="10.40" departLane="best" from="-149611526#0" to="142575693#0"/>
    <trip id="veh5" type="veh_passenger" depart="13.00" departLane="best" from="-142575656#12" to="-149611526#0"/>
    <trip id="veh7" type="veh_passenger" depart="18.20" departLane="best" from="-152839428" to="143308542#0"/>
    <trip id="veh9" type="veh_passenger" depart="23.40" departLane="best" from="259433185" to="169076559"/>
    <trip id="veh11" type="veh_passenger" depart="28.60" departLane="best" from="-142575690#2" to="-142575691#5"/>
    <trip id="veh12" type="veh_passenger" depart="31.20" departLane="best" from="318210351" to="143308542#8"/>
    <trip id="veh13" type="veh_passenger" depart="33.81" departLane="best" from="259433185" to="190083608#1"/>
    <trip id="veh14" type="veh_passenger" depart="36.41" departLane="best" from="142575701#0" to="581145190"/>
    <trip id="veh15" type="veh_passenger" depart="39.01" departLane="best" from="-52080655#2" to="143308493#0"/>
    <trip id="veh16" type="veh_passenger" depart="41.61" departLane="best" from="313964778#0" to="143308546#21"/>
    <trip id="veh17" type="veh_passenger" depart="44.21" departLane="best" from="318210369#1" to="143308527#2"/>
    <trip id="veh18" type="veh_passenger" depart="46.81" departLane="best" from="153021553#1" to="-142575661#1"/>
    <trip id="veh19" type="veh_passenger" depart="49.41" departLane="best" from="-172013798#3" to="-314415495#12"/>
    <trip id="veh20" type="veh_passenger" depart="52.01" departLane="best" from="-142575688#10" to="-187123053#0"/>
    <trip id="veh21" type="veh_passenger" depart="54.61" departLane="best" from="-142575691#5" to="-26991766#6"/>
    <trip id="veh22" type="veh_passenger" depart="57.21" departLane="best" from="143308549#2" to="-52081075#2"/>
    <trip id="veh24" type="veh_passenger" depart="62.41" departLane="best" from="-23913524#6" to="412992929#1"/>
    <trip id="veh26" type="veh_passenger" depart="67.61" departLane="best" from="-143308527#5" to="187123053#1"/>
    <trip id="veh27" type="veh_passenger" depart="70.21" departLane="best" from="-143308523#5" to="-71028777#7"/>
    <trip id="veh28" type="veh_passenger" depart="72.81" departLane="best" from="143308493#0" to="149611526#0"/>
    <trip id="veh29" type="veh_passenger" depart="75.41" departLane="best" from="314415495#5" to="23925119#1"/>
    <trip id="veh30" type="veh_passenger" depart="78.01" departLane="best" from="-172014854#0" to="-142575657#1"/>
    <trip id="veh31" type="veh_passenger" depart="80.61" departLane="best" from="-314415495#3" to="-24214694#4"/>
    <trip id="veh32" type="veh_passenger" depart="83.21" departLane="best" from="-149611514#8" to="46039050#4"/>
    <trip id="veh33" type="veh_passenger" depart="85.81" departLane="best" from="318210389#0" to="-318210378#0"/>
    <trip id="veh34" type="veh_passenger" depart="88.41" departLane="best" from="146511461#3" to="137534616#2"/>
    <trip id="veh35" type="veh_passenger" depart="91.01" departLane="best" from="-23913524#6" to="-190083616#0"/>
    <trip id="veh36" type="veh_passenger" depart="93.61" departLane="best" from="143308505#1" to="-23925124#0"/>
    <trip id="veh37" type="veh_passenger" depart="96.22" departLane="best" from="143308527#0" to="38159999#1"/>
    <trip id="veh38" type="veh_passenger" depart="98.82" departLane="best" from="81639675#2" to="142575693#4"/>
    <trip id="veh39" type="veh_passenger" depart="101.42" departLane="best" from="-142575689" to="-142575661#2"/>
    <trip id="veh40" type="veh_passenger" depart="104.02" departLane="best" from="-142575695#2" to="143308546#7"/>
    <trip id="veh41" type="veh_passenger" depart="106.62" departLane="best" from="257072321#3" to="142575656#6"/>
    <trip id="veh43" type="veh_passenger" depart="111.82" departLane="best" from="8025704#0" to="142575704#0"/>
    <trip id="veh44" type="veh_passenger" depart="114.42" departLane="best" from="541676219" to="318210367#1"/>
    <trip id="veh45" type="veh_passenger" depart="117.02" departLane="best" from="-140964924#1" to="187122892#14"/>
    <trip id="veh46" type="veh_passenger" depart="119.62" departLane="best" from="149611524#1" to="142575704#3"/>
    <trip id="veh47" type="veh_passenger" depart="122.22" departLane="best" from="-23913524#6" to="143308587#1"/>
    <trip id="veh48" type="veh_passenger" depart="124.82" departLane="best" from="-142575695#2" to="142575658#1"/>
    <trip id="veh49" type="veh_passenger" depart="127.42" departLane="best" from="142575661#0" to="52036180#2"/>
    <trip id="veh50" type="veh_passenger" depart="130.02" departLane="best" from="318210388#0" to="-23925124#0"/>
    <trip id="veh51" type="veh_passenger" depart="132.62" departLane="best" from="38160000" to="318210378#2"/>
    <trip id="veh52" type="veh_passenger" depart="135.22" departLane="best" from="-26991766#7" to="143308562#5"/>
    <trip id="veh53" type="veh_passenger" depart="137.82" departLane="best" from="143308542#8" to="-143308527#0"/>
    <trip id="veh54" type="veh_passenger" depart="140.42" departLane="best" from="207086005" to="142575704#6"/>
    <trip id="veh55" type="veh_passenger" depart="143.02" departLane="best" from="23925124#0" to="142575704#1"/>
    <trip id="veh57" type="veh_passenger" depart="148.22" departLane="best" from="-142575655#7" to="40191606#3"/>
    <trip id="veh58" type="veh_passenger" depart="150.82" departLane="best" from="318210394#1" to="31050360#1"/>
    <trip id="veh59" type="veh_passenger" depart="153.42" departLane="best" from="-314415495#11" to="-142575674#0"/>
    <trip id="veh60" type="veh_passenger" depart="156.02" departLane="best" from="318210394#1" to="461514282#1"/>
    <trip id="veh61" type="veh_passenger" depart="158.63" departLane="best" from="-142575684#1" to="23788323#1"/>
    <trip id="veh62" type="veh_passenger" depart="161.23" departLane="best" from="22762397" to="-142575710#5"/>
    <trip id="veh64" type="veh_passenger" depart="166.43" departLane="best" from="-23913524#6" to="318210378#4"/>
    <trip id="veh65" type="veh_passenger" depart="169.03" departLane="best" from="142575655#6" to="-152839426"/>
    <trip id="veh66" type="veh_passenger" depart="171.63" departLane="best" from="142575704#0" to="190083608#1"/>
    <trip id="veh67" type="veh_passenger" depart="174.23" departLane="best" from="-147859765#5" to="-318210376"/>
    <trip id="veh68" type="veh_passenger" depart="176.83" departLane="best" from="73058506#1" to="146511461#2"/>
    <trip id="veh69" type="veh_passenger" depart="179.43" departLane="best" from="142575656#8" to="142575695#2"/>
    <trip id="veh70" type="veh_passenger" depart="182.03" departLane="best" from="-142575704#0" to="-187122892#12"/>
    <trip id="veh71" type="veh_passenger" depart="184.63" departLane="best" from="-318210378#5" to="143308532#6"/>
    <trip id="veh72" type="veh_passenger" depart="187.23" departLane="best" from="-142575684#5" to="143308549#2"/>
    <trip id="veh73" type="veh_passenger" depart="189.83" departLane="best" from="-172014854#0" to="38159999#8"/>
    <trip id="veh74" type="veh_passenger" depart="192.43" departLane="best" from="318210366" to="-142575687#0"/>
    <trip id="veh75" type="veh_passenger" depart="195.03" departLane="best" from="-149611514#8" to="-143308493#3"/>
    <trip id="veh76" type="veh_passenger" depart="197.63" departLane="best" from="43660343#1" to="143308523#5"/>
    <trip id="veh78" type="veh_passenger" depart="202.83" departLane="best" from="259433185" to="-149611514#2"/>
    <trip id="veh79" type="veh_passenger" depart="205.43" departLane="best" from="-142575690#8" to="142575657#4"/>
    <trip id="veh80" type="veh_passenger" depart="208.03" departLane="best" from="142575655#7" to="142575684#5"/>
    <trip id="veh81" type="veh_passenger" depart="210.63" departLane="best" from="187123053#0" to="149611514#4"/>
    <trip id="veh82" type="veh_passenger" depart="213.23" departLane="best" from="71028777#3" to="-142575694#1"/>
    <trip id="veh83" type="veh_passenger" depart="215.83" departLane="best" from="-73058506#2" to="-375685717"/>
    <trip id="veh84" type="veh_passenger" depart="218.43" departLane="best" from="318210369#1" to="-190083616#0"/>
    <trip id="veh85" type="veh_passenger" depart="221.04" departLane="best" from="-147859763#2" to="142575662#2"/>
    <trip id="veh86" type="veh_passenger" depart="223.64" departLane="best" from="142575655#5" to="-26991766#7"/>
    <trip id="veh87" type="veh_passenger" depart="226.24" departLane="best" from="-20553068#1" to="39969574#2"/>
    <trip id="veh88" type="veh_passenger" depart="228.84" departLane="best" from="142575657#3" to="318210367#1"/>
    <trip id="veh89" type="veh_passenger" depart="231.44" departLane="best" from="142575704#7" to="-142575662#1"/>
    <trip id="veh90" type="veh_passenger" depart="234.04" departLane="best" from="52243916#1" to="40191606#0"/>
    <trip id="veh92" type="veh_passenger" depart="239.24" departLane="best" from="142575686#1" to="-152839426"/>
    <trip id="veh93" type="veh_passenger" depart="241.84" departLane="best" from="-73058506#1" to="-142575674#1"/>
    <trip id="veh95" type="veh_passenger" depart="247.04" departLane="best" from="142575661#1" to="142575656#7"/>
    <trip id="veh96" type="veh_passenger" depart="249.64" departLane="best" from="52081075#0" to="8025704#0"/>
    <trip id="veh97" type="veh_passenger" depart="252.24" departLane="best" from="142575710#5" to="187122892#14"/>
    <trip id="veh98" type="veh_passenger" depart="254.84" departLane="best" from="-143308521#4" to="-314415495#4"/>
    <trip id="veh99" type="veh_passenger" depart="257.44" departLane="best" from="52081116#7" to="143308527#5"/>
    <trip id="veh100" type="veh_passenger" depart="260.04" departLane="best" from="142575704#11" to="20553068#2"/>
    <trip id="veh101" type="veh_passenger" depart="262.64" departLane="best" from="-142575662#2" to="143308532#5"/>
    <trip id="veh102" type="veh_passenger" depart="265.24" departLane="best" from="142575688#9" to="318210353"/>
    <trip id="veh103" type="veh_passenger" depart="267.84" departLane="best" from="143308542#1" to="149611514#6"/>
    <trip id="veh104" type="veh_passenger" depart="270.44" departLane="best" from="-187122892#13" to="-142575704#4"/>
    <trip id="veh106" type="veh_passenger" depart="275.64" departLane="best" from="142575655#0" to="143308532#5"/>
    <trip id="veh107" type="veh_passenger" depart="278.24" departLane="best" from="142575693#3" to="40191607#2"/>
    <trip id="veh108" type="veh_passenger" depart="280.84" departLane="best" from="-149611511#2" to="187122892#12"/>
    <trip id="veh109" type="veh_passenger" depart="283.45" departLane="best" from="-187122892#6" to="137534616#2"/>
    <trip id="veh110" type="veh_passenger" depart="286.05" departLane="best" from="147859765#6" to="-314415495#7"/>
    <trip id="veh111" type="veh_passenger" depart="288.65" departLane="best" from="-314415495#4" to="206889086#1"/>
    <trip id="veh112" type="veh_passenger" depart="291.25" departLane="best" from="-142575684#5" to="142575677#3"/>
    <trip id="veh113" type="veh_passenger" depart="293.85" departLane="best" from="81639678#1" to="8025704#0"/>
    <trip id="veh114" type="veh_passenger" depart="296.45" departLane="best" from="-142575684#5" to="-152839426"/>
    <trip id="veh115" type="veh_passenger" depart="299.05" departLane="best" from="-23913524#6" to="40191607#2"/>
    <trip id="veh116" type="veh_passenger" depart="301.65" departLane="best" from="-383474991" to="-143308527#6"/>
    <trip id="veh117" type="veh_passenger" depart="304.25" departLane="best" from="314415495#12" to="172014854#0"/>
    <trip id="veh118" type="veh_passenger" depart="306.85" departLane="best" from="146511461#0" to="-137534616#4"/>
    <trip id="veh119" type="veh_passenger" depart="309.45" departLane="best" from="26991766#7" to="-314415495#6"/>
    <trip id="veh120" type="veh_passenger" depart="312.05" departLane="best" from="147859763#4" to="414563781"/>
    <trip id="veh121" type="veh_passenger" depart="314.65" departLane="best" from="-142575710#0" to="-142575704#13"/>
    <trip id="veh122" type="veh_passenger" depart="317.25" departLane="best" from="-142575695#0" to="143308493#1"/>
    <trip id="veh123" type="veh_passenger" depart="319.85" departLane="best" from="-23925122" to="143308542#9"/>
    <trip id="veh124" type="veh_passenger" depart="322.45" departLane="best" from="180789857#7" to="-149611534#0"/>
    <trip id="veh125" type="veh_passenger" depart="325.05" departLane="best" from="143308546#9" to="-23925124#1"/>
    <trip id="veh126" type="veh_passenger" depart="327.65" departLane="best" from="142575687#0" to="38159999#8"/>
    <trip id="veh127" type="veh_passenger" depart="330.25" departLane="best" from="314415495#9" to="-142575690#8"/>
    <trip id="veh128" type="veh_passenger" depart="332.85" departLane="best" from="142575655#7" to="-26991766#5"/>
    <trip id="veh129" type="veh_passenger" depart="335.45" departLane="best" from="-137483015#3" to="23913524#6"/>
    <trip id="veh130" type="veh_passenger" depart="338.05" departLane="best" from="143308552#1" to="-23925119#1"/>
    <trip id="veh131" type="veh_passenger" depart="340.65" departLane="best" from="190083610" to="143308493#0"/>
    <trip id="veh132" type="veh_passenger" depart="343.25" departLane="best" from="142575656#1" to="-140964924#0"/>
    <trip id="veh133" type="veh_passenger" depart="345.86" departLane="best" from="-142575684#5" to="326994261#0"/>
    <trip id="veh134" type="veh_passenger" depart="348.46" departLane="best" from="38159999#10" to="142575710#5"/>
    <trip id="veh135" type="veh_passenger" depart="351.06" departLane="best" from="314415495#13" to="143308532#2"/>
    <trip id="veh136" type="veh_passenger" depart="353.66" departLane="best" from="-143308505#0" to="-142575710#4"/>
    <trip id="veh137" type="veh_passenger" depart="356.26" departLane="best" from="-314415495#12" to="38159999#10"/>
    <trip id="veh138" type="veh_passenger" depart="358.86" departLane="best" from="257072321#7" to="318210367#1"/>
    <trip id="veh139" type="veh_passenger" depart="361.46" departLane="best" from="-20553068#1" to="-142575695#1"/>
    <trip id="veh140" type="veh_passenger" depart="364.06" departLane="best" from="23925124#2" to="334308447#1"/>
    <trip id="veh141" type="veh_passenger" depart="366.66" departLane="best" from="-81639678#0" to="143308546#24"/>
    <trip id="veh142" type="veh_passenger" depart="369.26" departLane="best" from="-143308521#4" to="40191607#1"/>
    <trip id="veh143" type="veh_passenger" depart="371.86" departLane="best" from="318210373#1" to="581145190"/>
    <trip id="veh145" type="veh_passenger" depart="377.06" departLane="best" from="-142575656#10" to="204721578#0"/>
    <trip id="veh146" type="veh_passenger" depart="379.66" departLane="best" from="-318210377#0" to="40191607#2"/>
    <trip id="veh147" type="veh_passenger" depart="382.26" departLane="best" from="259433182#3" to="318210373#0"/>
    <trip id="veh149" type="veh_passenger" depart="387.46" departLane="best" from="24733698#0" to="-142575701#0"/>
    <trip id="veh150" type="veh_passenger" depart="390.06" departLane="best" from="318210378#4" to="318210364"/>
    <trip id="veh151" type="veh_passenger" depart="392.66" departLane="best" from="-166142951#1" to="259466417#2"/>
    <trip id="veh152" type="veh_passenger" depart="395.26" departLane="best" from="142575667#0" to="-318210362"/>
    <trip id="veh153" type="veh_passenger" depart="397.86" departLane="best" from="257072321#6" to="-187122892#4"/>
    <trip id="veh154" type="veh_passenger" depart="400.46" departLane="best" from="-142575656#1" to="-149611514#5"/>
    <trip id="veh155" type="veh_passenger" depart="403.06" departLane="best" from="-318210371#0" to="318210373#1"/>
    <trip id="veh156" type="veh_passenger" depart="405.66" departLane="best" from="52081116#3" to="-26991766#8"/>
    <trip id="veh157" type="veh_passenger" depart="408.26" departLane="best" from="143308562#1" to="140964924#1"/>
    <trip id="veh158" type="veh_passenger" depart="410.87" departLane="best" from="71028774#0" to="142575704#2"/>
    <trip id="veh159" type="veh_passenger" depart="413.47" departLane="best" from="46039050#0" to="-142575704#13"/>
    <trip id="veh160" type="veh_passenger" depart="416.07" departLane="best" from="52243916#2" to="-147859763#5"/>
    <trip id="veh161" type="veh_passenger" depart="418.67" departLane="best" from="52081075#9" to="-23925124#2"/>
    <trip id="veh162" type="veh_passenger" depart="421.27" departLane="best" from="-142575695#1" to="142575658#1"/>
    <trip id="veh163" type="veh_passenger" depart="423.87" departLane="best" from="187122892#9" to="-318210377#1"/>
    <trip id="veh164" type="veh_passenger" depart="426.47" departLane="best" from="143308542#5" to="142575694#0"/>
    <trip id="veh165" type="veh_passenger" depart="429.07" departLane="best" from="-52081075#9" to="143308527#2"/>
    <trip id="veh166" type="veh_passenger" depart="431.67" departLane="best" from="-20553068#2" to="180789857#3"/>
    <trip id="veh167" type="veh_passenger" depart="434.27" departLane="best" from="-137483015#0" to="40191605#2"/>
    <trip id="veh168" type="veh_passenger" depart="436.87" departLane="best" from="142575701#3" to="187122892#14"/>
    <trip id="veh169" type="veh_passenger" depart="439.47" departLane="best" from="190083610" to="149611514#2"/>
    <trip id="veh170" type="veh_passenger" depart="442.07" departLane="best" from="-38159999#9" to="-142575684#4"/>
    <trip id="veh171" type="veh_passenger" depart="444.67" departLane="best" from="147859763#5" to="-33690600"/>
    <trip id="veh172" type="veh_passenger" depart="447.27" departLane="best" from="-314415495#18" to="314415495#6"/>
    <trip id="veh173" type="veh_passenger" depart="449.87" departLane="best" from="187122892#1" to="-314415495#7"/>
    <trip id="veh174" type="veh_passenger" depart="452.47" departLane="best" from="-314415495#13" to="142575655#6"/>
    <trip id="veh175" type="veh_passenger" depart="455.07" departLane="best" from="-73058506#2" to="-314415495#3"/>
    <trip id="veh176" type="veh_passenger" depart="457.67" departLane="best" from="46039050#0" to="149611514#8"/>
    <trip id="veh177" type="veh_passenger" depart="460.27" departLane="best" from="38159999#1" to="143308546#19"/>
    <trip id="veh178" type="veh_passenger" depart="462.87" departLane="best" from="-137483014#0" to="-314415495#10"/>
    <trip id="veh179" type="veh_passenger" depart="465.47" departLane="best" from="142575656#11" to="143308527#6"/>
    <trip id="veh180" type="veh_passenger" depart="468.07" departLane="best" from="146511461#2" to="142575684#5"/>
    <trip id="veh181" type="veh_passenger" depart="470.67" departLane="best" from="142575657#2" to="-152839426"/>
    <trip id="veh182" type="veh_passenger" depart="473.28" departLane="best" from="142575677#0" to="38159999#2"/>
    <trip id="veh183" type="veh_passenger" depart="475.88" departLane="best" from="257072321#7" to="-146511461#3"/>
    <trip id="veh185" type="veh_passenger" depart="481.08" departLane="best" from="26991766#8" to="206889086#1"/>
    <trip id="veh186" type="veh_passenger" depart="483.68" departLane="best" from="147859766" to="-187122892#12"/>
    <trip id="veh187" type="veh_passenger" depart="486.28" departLane="best" from="-147859765#2" to="-142575656#3"/>
    <trip id="veh188" type="veh_passenger" depart="488.88" departLane="best" from="-190083608#1" to="142575687#1"/>
    <trip id="veh189" type="veh_passenger" depart="491.48" departLane="best" from="318210355" to="-142575688#0"/>
    <trip id="veh190" type="veh_passenger" depart="494.08" departLane="best" from="137534616#1" to="143308546#9"/>
    <trip id="veh191" type="veh_passenger" depart="496.68" departLane="best" from="-147859763#6" to="166142951#0"/>
    <trip id="veh192" type="veh_passenger" depart="499.28" departLane="best" from="142575688#13" to="-190083610"/>
    <trip id="veh193" type="veh_passenger" depart="501.88" departLane="best" from="146511461#5" to="-137534616#1"/>
    <trip id="veh194" type="veh_passenger" depart="504.48" departLane="best" from="192204854#0" to="23913524#6"/>
    <trip id="veh195" type="veh_passenger" depart="507.08" departLane="best" from="-143308562#5" to="52081075#3"/>
    <trip id="veh196" type="veh_passenger" depart="509.68" departLane="best" from="142575692#5" to="-142575662#0"/>
    <trip id="veh197" type="veh_passenger" depart="512.28" departLane="best" from="-20553068#1" to="314415495#6"/>
    <trip id="veh198" type="veh_passenger" depart="514.88" departLane="best" from="142575661#3" to="257072321#8"/>
    <trip id="veh199" type="veh_passenger" depart="517.48" departLane="best" from="147859763#9" to="72230304#1"/>
    <trip id="veh200" type="veh_passenger" depart="520.08" departLane="best" from="143308542#1" to="48858191#3"/>
    <trip id="veh202" type="veh_passenger" depart="525.28" departLane="best" from="187122892#1" to="142575692#6"/>
    <trip id="veh204" type="veh_passenger" depart="530.48" departLane="best" from="375685717" to="204721579#8"/>
    <trip id="veh205" type="veh_passenger" depart="533.08" departLane="best" from="142575677#0" to="-23913524#5"/>
    <trip id="veh206" type="veh_passenger" depart="535.69" departLane="best" from="22762397" to="142575695#2"/>
    <trip id="veh207" type="veh_passenger" depart="538.29" departLane="best" from="143308546#25" to="-26991766#10"/>
    <trip id="veh208" type="veh_passenger" depart="540.89" departLane="best" from="-142575687#1" to="-314415495#0"/>
    <trip id="veh209" type="veh_passenger" depart="543.49" departLane="best" from="-23925119#1" to="-318210386#2"/>
    <trip id="veh210" type="veh_passenger" depart="546.09" departLane="best" from="142575704#1" to="-143308521#2"/>
    <trip id="veh211" type="veh_passenger" depart="548.69" departLane="best" from="-172014854#2" to="153021549#5"/>
    <trip id="veh212" type="veh_passenger" depart="551.29" departLane="best" from="166142951#1" to="-142575677#0"/>
    <trip id="veh213" type="veh_passenger" depart="553.89" departLane="best" from="10735918#0" to="142575710#0"/>
    <trip id="veh215" type="veh_passenger" depart="559.09" departLane="best" from="142575655#1" to="38159999#5"/>
    <trip id="veh216" type="veh_passenger" depart="561.69" departLane="best" from="143308523#8" to="153021553#1"/>
    <trip id="veh217" type="veh_passenger" depart="564.29" departLane="best" from="318210361#1" to="23913524#2"/>
    <trip id="veh218" type="veh_passenger" depart="566.89" departLane="best" from="-52081075#3" to="-137534616#2"/>
    <trip id="veh220" type="veh_passenger" depart="572.09" departLane="best" from="142575655#0" to="20553068#2"/>
    <trip id="veh221" type="veh_passenger" depart="574.69" departLane="best" from="142575704#2" to="143308542#7"/>
    <trip id="veh222" type="veh_passenger" depart="577.29" departLane="best" from="-152839428" to="-172014854#0"/>
    <trip id="veh223" type="veh_passenger" depart="579.89" departLane="best" from="-318210378#3" to="149611514#8"/>
    <trip id="veh224" type="veh_passenger" depart="582.49" departLane="best" from="142575674#0" to="-142575710#4"/>
    <trip id="veh225" type="veh_passenger" depart="585.09" departLane="best" from="143308546#20" to="-142575656#5"/>
    <trip id="veh227" type="veh_passenger" depart="590.29" departLane="best" from="-142575710#3" to="142575684#1"/>
    <trip id="veh228" type="veh_passenger" depart="592.89" departLane="best" from="-142575661#0" to="-71028777#7"/>
    <trip id="veh229" type="veh_passenger" depart="595.49" departLane="best" from="-149611514#8" to="-334308447#1"/>
    <trip id="veh230" type="veh_passenger" depart="598.10" departLane="best" from="206889086#1" to="-71028777#7"/>
    <trip id="veh231" type="veh_passenger" depart="600.70" departLane="best" from="204721578#1" to="31050360#1"/>
    <trip id="veh232" type="veh_passenger" depart="603.30" departLane="best" from="-20553068#2" to="-142575688#6"/>
    <trip id="veh233" type="veh_passenger" depart="605.90" departLane="best" from="-142575655#7" to="142575704#6"/>
    <trip id="veh234" type="veh_passenger" depart="608.50" departLane="best" from="81639685#0" to="-38159999#3"/>
    <trip id="veh237" type="veh_passenger" depart="616.30" departLane="best" from="48858191#1" to="-149611526#0"/>
    <trip id="veh238" type="veh_passenger" depart="618.90" departLane="best" from="-142575655#8" to="-143308527#0"/>
    <trip id="veh239" type="veh_passenger" depart="621.50" departLane="best" from="-142575704#14" to="149611511#1"/>
    <trip id="veh241" type="veh_passenger" depart="626.70" departLane="best" from="153021549#0" to="23913524#3"/>
    <trip id="veh242" type="veh_passenger" depart="629.30" departLane="best" from="-143308527#1" to="143308546#10"/>
    <trip id="veh243" type="veh_passenger" depart="631.90" departLane="best" from="190083616#1" to="-142575704#12"/>
    <trip id="veh244" type="veh_passenger" depart="634.50" departLane="best" from="26991766#9" to="52081116#1"/>
    <trip id="veh245" type="veh_passenger" depart="637.10" departLane="best" from="-314415495#15" to="149611514#8"/>
    <trip id="veh246" type="veh_passenger" depart="639.70" departLane="best" from="52081075#3" to="137534616#3"/>
    <trip id="veh247" type="veh_passenger" depart="642.30" departLane="best" from="180789857#4" to="-142575688#12"/>
    <trip id="veh248" type="veh_passenger" depart="644.90" departLane="best" from="149611534#3" to="143308546#7"/>
    <trip id="veh249" type="veh_passenger" depart="647.50" departLane="best" from="-142575694#0" to="23913524#6"/>
    <trip id="veh250" type="veh_passenger" depart="650.10" departLane="best" from="318210355" to="143308542#4"/>
    <trip id="veh251" type="veh_passenger" depart="652.70" departLane="best" from="-142575704#0" to="71028777#3"/>
    <trip id="veh252" type="veh_passenger" depart="655.30" departLane="best" from="24152326#0" to="-38159999#11"/>
    <trip id="veh253" type="veh_passenger" depart="657.90" departLane="best" from="142575656#10" to="-52081075#9"/>
    <trip id="veh254" type="veh_passenger" depart="660.51" departLane="best" from="142575690#3" to="-375685717"/>
    <trip id="veh255" type="veh_passenger" depart="663.11" departLane="best" from="318210355" to="26991766#1"/>
    <trip id="veh256" type="veh_passenger" depart="665.71" departLane="best" from="-142575694#4" to="52081075#7"/>
    <trip id="veh257" type="veh_passenger" depart="668.31" departLane="best" from="143308549#1" to="26991766#9"/>
    <trip id="veh258" type="veh_passenger" depart="670.91" departLane="best" from="166142951#1" to="142575658#2"/>
    <trip id="veh259" type="veh_passenger" depart="673.51" departLane="best" from="187123053#1" to="52081116#2"/>
    <trip id="veh260" type="veh_passenger" depart="676.11" departLane="best" from="-23913526" to="259433183"/>
    <trip id="veh261" type="veh_passenger" depart="678.71" departLane="best" from="142575701#3" to="142575688#3"/>
    <trip id="veh262" type="veh_passenger" depart="681.31" departLane="best" from="142575656#5" to="190083608#2"/>
    <trip id="veh263" type="veh_passenger" depart="683.91" departLane="best" from="-23913524#6" to="314415495#9"/>
    <trip id="veh264" type="veh_passenger" depart="686.51" departLane="best" from="314415495#1" to="-142575690#0"/>
    <trip id="veh265" type="veh_passenger" depart="689.11" departLane="best" from="320741894#0" to="-190083610"/>
    <trip id="veh266" type="veh_passenger" depart="691.71" departLane="best" from="142575673" to="143308546#13"/>
    <trip id="veh267" type="veh_passenger" depart="694.31" departLane="best" from="-52081075#2" to="-142575656#7"/>
    <trip id="veh268" type="veh_passenger" depart="696.91" departLane="best" from="318210355" to="-147859763#9"/>
    <trip id="veh269" type="veh_passenger" depart="699.51" departLane="best" from="-149611514#8" to="257072321#4"/>
    <trip id="veh270" type="veh_passenger" depart="702.11" departLane="best" from="-334308447#0" to="320741893"/>
    <trip id="veh271" type="veh_passenger" depart="704.71" departLane="best" from="153021549#2" to="-26991766#5"/>
    <trip id="veh272" type="veh_passenger" depart="707.31" departLane="best" from="-140964924#1" to="48298278#0"/>
    <trip id="veh273" type="veh_passenger" depart="709.91" departLane="best" from="-142575688#5" to="187122892#14"/>
    <trip id="veh274" type="veh_passenger" depart="712.51" departLane="best" from="142575687#0" to="231626692#1"/>
    <trip id="veh276" type="veh_passenger" depart="717.71" departLane="best" from="-142575690#3" to="-172014854#2"/>
    <trip id="veh277" type="veh_passenger" depart="720.31" departLane="best" from="152839426" to="-318210369#0"/>