<?xml version="1.0" encoding="UTF-8"?>

<!-- generated on 2023-04-21 13:05:30.333135 by osmWebWizard.py v1_16_0+2276-4f188b51225
<configuration>
    <net-file value="C:\erdm_ja\sip-svn-trunk\papers\DLR\SUMO_Conference2023\tutorial\01_wizard\2023-04-21-13-05-22\osm.net.xml.gz"/>
    <output-trip-file value="C:\erdm_ja\sip-svn-trunk\papers\DLR\SUMO_Conference2023\tutorial\01_wizard\2023-04-21-13-05-22\osm.bicycle.trips.xml"/>
    <route-file value="C:\erdm_ja\sip-svn-trunk\papers\DLR\SUMO_Conference2023\tutorial\01_wizard\2023-04-21-13-05-22\osm.bicycle.rou.xml"/>
    <prefix value="bike"/>
    <trip-attributes value="departLane=&quot;best&quot;"/>
    <fringe-start-attributes value="departSpeed=&quot;max&quot;"/>
    <fringe-factor value="2"/>
    <max-distance value="8000.0"/>
    <vclass value="bicycle"/>
    <vehicle-class value="bicycle"/>
    <remove-loops value="True"/>
    <via-edge-types value="highway.motorway,highway.motorway_link,highway.trunk_link,highway.primary_link,highway.secondary_link,highway.tertiary_link"/>
    <validate value="True"/>
    <insertion-density value="6.0"/>
</configuration>
-->

<!-- generated on 2023-04-21 13:05:30 by Eclipse SUMO duarouter Version v1_16_0+2276-4f188b51225
<configuration xmlns:xsi="http://www.w3.org/2001/XMLSchema-instance" xsi:noNamespaceSchemaLocation="http://sumo.dlr.de/xsd/duarouterConfiguration.xsd">

    <input>
        <net-file value="C:\erdm_ja\sip-svn-trunk\papers\DLR\SUMO_Conference2023\tutorial\01_wizard\2023-04-21-13-05-22\osm.net.xml.gz"/>
        <route-files value="C:\erdm_ja\sip-svn-trunk\papers\DLR\SUMO_Conference2023\tutorial\01_wizard\2023-04-21-13-05-22\osm.bicycle.trips.xml"/>
    </input>

    <output>
        <output-file value="C:\erdm_ja\sip-svn-trunk\papers\DLR\SUMO_Conference2023\tutorial\01_wizard\2023-04-21-13-05-22\osm.bicycle.trips.xml.tmp"/>
        <alternatives-output value="NUL"/>
        <write-trips value="true"/>
    </output>

    <processing>
        <remove-loops value="true"/>
    </processing>

    <time>
        <begin value="0.0"/>
        <end value="3600.0"/>
    </time>

    <report>
        <no-warnings value="true"/>
        <ignore-errors value="true"/>
        <no-step-log value="true"/>
    </report>

</configuration>
-->

<routes xmlns:xsi="http://www.w3.org/2001/XMLSchema-instance" xsi:noNamespaceSchemaLocation="http://sumo.dlr.de/xsd/routes_file.xsd">
    <vType id="bike_bicycle" vClass="bicycle"/>
    <trip id="bike0" type="bike_bicycle" depart="0.00" departLane="best" from="-142575704#17" to="-1144883445#4"/>
    <trip id="bike1" type="bike_bicycle" depart="9.23" departLane="best" from="-31344737#1" to="-257072321#1"/>
    <trip id="bike2" type="bike_bicycle" depart="18.46" departLane="best" from="-24931878#0" to="24733617#1"/>
    <trip id="bike3" type="bike_bicycle" depart="27.69" departLane="best" departSpeed="max" from="683917425" to="142575655#19"/>
    <trip id="bike4" type="bike_bicycle" depart="36.92" departLane="best" from="-841345129#4" to="-1149091031#0"/>
    <trip id="bike5" type="bike_bicycle" depart="46.15" departLane="best" departSpeed="max" from="-246099078#1" to="-142575655#14"/>
    <trip id="bike6" type="bike_bicycle" depart="55.38" departLane="best" from="-1144883445#2" to="180789857#2"/>
    <trip id="bike7" type="bike_bicycle" depart="64.60" departLane="best" from="-1050728695#0" to="-142575691#4"/>
    <trip id="bike8" type="bike_bicycle" depart="73.83" departLane="best" from="-24733617#1" to="-143308493#2"/>
    <trip id="bike9" type="bike_bicycle" depart="83.06" departLane="best" from="-318210394" to="-1050728727"/>
    <trip id="bike10" type="bike_bicycle" depart="92.29" departLane="best" from="318210377#0" to="25728863#3"/>
    <trip id="bike11" type="bike_bicycle" depart="101.52" departLane="best" from="-465634676#1" to="-142575737#5"/>
    <trip id="bike12" type="bike_bicycle" depart="110.75" departLane="best" from="142575693#8" to="579026240#0"/>
    <trip id="bike13" type="bike_bicycle" depart="119.98" departLane="best" departSpeed="max" from="-142575659" to="-142575656#2"/>
    <trip id="bike14" type="bike_bicycle" depart="129.21" departLane="best" from="45875465" to="143308532#1"/>
    <trip id="bike15" type="bike_bicycle" depart="138.44" departLane="best" from="318210378#0" to="28888490#2"/>
    <trip id="bike16" type="bike_bicycle" depart="147.67" departLane="best" from="1155396202#1" to="887919962#2"/>
    <trip id="bike17" type="bike_bicycle" depart="156.90" departLane="best" departSpeed="max" from="-583563978#2" to="71028774#0"/>
    <trip id="bike18" type="bike_bicycle" depart="166.13" departLane="best" departSpeed="max" from="40636828#0" to="143308646#1"/>
    <trip id="bike19" type="bike_bicycle" depart="175.35" departLane="best" from="52081116#3" to="-142575710#6"/>
    <trip id="bike20" type="bike_bicycle" depart="184.58" departLane="best" from="158228537" to="-1155396201#0"/>
    <trip id="bike21" type="bike_bicycle" depart="193.81" departLane="best" from="24931845#1" to="-328868438#0"/>
    <trip id="bike22" type="bike_bicycle" depart="203.04" departLane="best" from="142575655#2" to="25728863#2"/>
    <trip id="bike23" type="bike_bicycle" depart="212.27" departLane="best" from="-142575687#2" to="-318210361#0"/>
    <trip id="bike24" type="bike_bicycle" depart="221.50" departLane="best" from="-142575701#4" to="-702305709#1"/>
    <trip id="bike26" type="bike_bicycle" depart="239.96" departLane="best" departSpeed="max" from="-28888490#3" to="843949733#0"/>
    <trip id="bike27" type="bike_bicycle" depart="249.19" departLane="best" from="142575710#6" to="143308546#7"/>
    <trip id="bike28" type="bike_bicycle" depart="258.42" departLane="best" departSpeed="max" from="-143308669#1" to="28888490#1"/>
    <trip id="bike29" type="bike_bicycle" depart="267.65" departLane="best" from="-143308560#1" to="-841345129#6"/>
    <trip id="bike30" type="bike_bicycle" depart="276.88" departLane="best" from="-976699223#0" to="149670380#1"/>
    <trip id="bike31" type="bike_bicycle" depart="286.10" departLane="best" departSpeed="max" from="1157486051" to="24931845#2"/>
    <trip id="bike32" type="bike_bicycle" depart="295.33" departLane="best" from="-45875459#0" to="357043350"/>
    <trip id="bike33" type="bike_bicycle" depart="304.56" departLane="best" from="-24931878#0" to="114207232#1"/>
    <trip id="bike34" type="bike_bicycle" depart="313.79" departLane="best" from="-38915290#2" to="-314415495#1"/>
    <trip id="bike35" type="bike_bicycle" depart="323.02" departLane="best" from="-230625607#1" to="875752723"/>
    <trip id="bike36" type="bike_bicycle" depart="332.25" departLane="best" from="-581636334#0" to="-412992935#3"/>
    <trip id="bike37" type="bike_bicycle" depart="341.48" departLane="best" from="142575737#5" to="-875752724#1"/>
    <trip id="bike38" type="bike_bicycle" depart="350.71" departLane="best" from="-802021414#3" to="1147088176"/>
    <trip id="bike39" type="bike_bicycle" depart="359.94" departLane="best" from="-28888490#0" to="26991766#1"/>
    <trip id="bike40" type="bike_bicycle" depart="369.17" departLane="best" from="-116342915" to="-31100755#3"/>
    <trip id="bike41" type="bike_bicycle" depart="378.40" departLane="best" from="142575656#2" to="81096605"/>
    <trip id="bike42" type="bike_bicycle" depart="387.63" departLane="best" from="-702305709#0" to="24791992"/>
    <trip id="bike43" type="bike_bicycle" depart="396.85" departLane="best" departSpeed="max" from="978808182" to="-142575655#7"/>
    <trip id="bike44" type="bike_bicycle" depart="406.08" departLane="best" from="-142575656#8" to="-1155396202#0"/>
    <trip id="bike45" type="bike_bicycle" depart="415.31" departLane="best" from="-142575689#1" to="143482770#0"/>
    <trip id="bike46" type="bike_bicycle" depart="424.54" departLane="best" from="-314415495#13" to="1050686766#3"/>
    <trip id="bike47" type="bike_bicycle" depart="433.77" departLane="best" from="-320741892" to="841345134#2"/>
    <trip id="bike48" type="bike_bicycle" depart="443.00" departLane="best" from="976918148#6" to="142575686#1"/>
    <trip id="bike49" type="bike_bicycle" depart="452.23" departLane="best" from="887919962#1" to="887919962#10"/>
    <trip id="bike50" type="bike_bicycle" depart="461.46" departLane="best" departSpeed="max" from="-1051024638#1" to="26991690"/>
    <trip id="bike51" type="bike_bicycle" depart="470.69" departLane="best" from="143308600#1" to="142575688#3"/>
    <trip id="bike52" type="bike_bicycle" depart="479.92" departLane="best" departSpeed="max" from="-28888490#3" to="-156071615#0"/>
    <trip id="bike53" type="bike_bicycle" depart="489.15" departLane="best" from="142575690#2" to="1051578539#3"/>
    <trip id="bike54" type="bike_bicycle" depart="498.38" departLane="best" from="-867334329#1" to="887910341#14"/>
    <trip id="bike55" type="bike_bicycle" depart="507.60" departLane="best" from="-579269933#0" to="-31100755#4"/>
    <trip id="bike56" type="bike_bicycle" depart="516.83" departLane="best" departSpeed="max" from="114024899#0" to="143482763"/>
    <trip id="bike57" type="bike_bicycle" depart="526.06" departLane="best" from="-774644126#0" to="688303295#0"/>
    <trip id="bike58" type="bike_bicycle" depart="535.29" departLane="best" departSpeed="max" from="-328288208" to="149670380#0"/>
    <trip id="bike59" type="bike_bicycle" depart="544.52" departLane="best" from="142575688#9" to="-142575737#0"/>
    <trip id="bike60" type="bike_bicycle" depart="553.75" departLane="best" from="-26843019#0" to="142575688#8"/>
    <trip id="bike61" type="bike_bicycle" depart="562.98" departLane="best" from="302943909#2" to="142575686#3"/>
    <trip id="bike62" type="bike_bicycle" depart="572.21" departLane="best" from="1050686757#0" to="-461093303#0"/>
    <trip id="bike63" type="bike_bicycle" depart="581.44" departLane="best" from="-114024903#1" to="843832577#1"/>
    <trip id="bike64" type="bike_bicycle" depart="590.67" departLane="best" from="26991766#3" to="578659364#1"/>
    <trip id="bike65" type="bike_bicycle" depart="599.90" departLane="best" departSpeed="max" from="-356766925#1" to="-1155421471#0"/>
    <trip id="bike67" type="bike_bicycle" depart="618.36" departLane="best" from="-142575656#11" to="1157486045#1"/>
    <trip id="bike68" type="bike_bicycle" depart="627.58" departLane="best" departSpeed="max" from="-134100875" to="318210378#1"/>
    <trip id="bike69" type="bike_bicycle" depart="636.81" departLane="best" from="-125399002#0" to="142575695#1"/>
    <trip id="bike70" type="bike_bicycle" depart="646.04" departLane="best" from="976918148#3" to="142575692#7"/>
    <trip id="bike71" type="bike_bicycle" depart="655.27" departLane="best" from="-28888490#0" to="689735906#0"/>
    <trip id="bike72" type="bike_bicycle" depart="664.50" departLane="best" from="-841345129#6" to="24152326#0"/>
    <trip id="bike73" type="bike_bicycle" depart="673.73" departLane="best" departSpeed="max" from="1155398308#0" to="28888490#2"/>
    <trip id="bike74" type="bike_bicycle" depart="682.96" departLane="best" from="-180789857#2" to="412992929#1"/>
    <trip id="bike75" type="bike_bicycle" depart="692.19" departLane="best" from="976918148#5" to="180789857#1"/>
    <trip id="bike76" type="bike_bicycle" depart="701.42" departLane="best" departSpeed="max" from="-841976402#1" to="-142575656#6"/>
    <trip id="bike77" type="bike_bicycle" depart="710.65" departLane="best" from="142575700#1" to="-257072321#11"/>
    <trip id="bike78" type="bike_bicycle" depart="719.88" departLane="best" from="-461093303#3" to="142598710#2"/>
    <trip id="bike79" type="bike_bicycle" depart="729.11" departLane="best" departSpeed="max" from="-24931878#2" to="24931845#0"/>
    <trip id="bike80" type="bike_bicycle" depart="738.33" departLane="best" departSpeed="max" from="-134100876" to="143482774#1"/>
    <trip id="bike81" type="bike_bicycle" depart="747.56" departLane="best" from="24931878#0" to="840221740"/>
    <trip id="bike82" type="bike_bicycle" depart="756.79" departLane="best" departSpeed="max" from="52081116#0" to="-1157488012"/>
    <trip id="bike84" type="bike_bicycle" depart="775.25" departLane="best" from="-24152326#0" to="-142575700#3"/>
    <trip id="bike85" type="bike_bicycle" depart="784.48" departLane="best" from="-843190005#3" to="142575704#20"/>
    <trip id="bike86" type="bike_bicycle" depart="793.71" departLane="best" from="976918147#1" to="-40636828#1"/>
    <trip id="bike87" type="bike_bicycle" depart="802.94" departLane="best" from="318210378#1" to="156071615#2"/>
    <trip id="bike88" type="bike_bicycle" depart="812.17" departLane="best" from="-142575672#4" to="-1051412287#1"/>
    <trip id="bike89" type="bike_bicycle" depart="821.40" departLane="best" from="841345129#6" to="1155062963#1"/>
    <trip id="bike90" type="bike_bicycle" depart="830.63" departLane="best" from="-24733617#1" to="246099078#1"/>
    <trip id="bike91" type="bike_bicycle" depart="839.86" departLane="best" from="976390654#0" to="-142575656#8"/>
    <trip id="bike92" type="bike_bicycle" depart="849.08" departLane="best" from="-71028777#0" to="-579026245"/>
    <trip id="bike93" type="bike_bicycle" depart="858.31" departLane="best" from="52081116#3" to="-26991766#14"/>
    <trip id="bike94" type="bike_bicycle" depart="867.54" departLane="best" from="155846073#2" to="114285336#1"/>
    <trip id="bike95" type="bike_bicycle" depart="876.77" departLane="best" from="-841345129#4" to="-318210361#2"/>
    <trip id="bike96" type="bike_bicycle" depart="886.00" departLane="best" from="-26816413#0" to="841976398#1"/>
    <trip id="bike97" type="bike_bicycle" depart="895.23" departLane="best" departSpeed="max" from="-843832577#1" to="670062912#1"/>
    <trip id="bike98" type="bike_bicycle" depart="904.46" departLane="best" from="1155421473#1" to="-1155396208#0"/>
    <trip id="bike99" type="bike_bicycle" depart="913.69" departLane="best" from="-998133653" to="-579026245"/>
    <trip id="bike100" type="bike_bicycle" depart="922.92" departLane="best" from="887919960#5" to="841976403"/>
    <trip id="bike101" type="bike_bicycle" depart="932.15" departLane="best" departSpeed="max" from="46039050#0" to="-143308521#3"/>
    <trip id="bike102" type="bike_bicycle" depart="941.38" departLane="best" departSpeed="max" from="1050728727" to="24733617#0"/>
    <trip id="bike103" type="bike_bicycle" depart="950.61" departLane="best" from="-71028774#0" to="-1155421471#1"/>
    <trip id="bike104" type="bike_bicycle" depart="959.83" departLane="best" departSpeed="max" from="-583563978#2" to="976390654#1"/>
    <trip id="bike105" type="bike_bicycle" depart="969.06" departLane="best" from="-28888490#1" to="397678492#1"/>
    <trip id="bike106" type="bike_bicycle" depart="978.29" departLane="best" from="-875752722" to="1050728695#1"/>
    <trip id="bike107" type="bike_bicycle" depart="987.52" departLane="best" from="142575693#8" to="-976918148#2"/>
    <trip id="bike108" type="bike_bicycle" depart="996.75" departLane="best" from="-1157486045#0" to="-26843019#3"/>
    <trip id="bike109" type="bike_bicycle" depart="1005.98" departLane="best" from="-143308505#4" to="-357043349#0"/>
    <trip id="bike110" type="bike_bicycle" depart="1015.21" departLane="best" from="887919960#4" to="142575712"/>
    <trip id="bike111" type="bike_bicycle" depart="1024.44" departLane="best" departSpeed="max" from="1155398311#0" to="314415495#16"/>
    <trip id="bike112" type="bike_bicycle" depart="1033.67" departLane="best" departSpeed="max" from="-1157486045#1" to="142575737#1"/>
    <trip id="bike113" type="bike_bicycle" depart="1042.90" departLane="best" from="-114024903#0" to="583563982"/>
    <trip id="bike114" type="bike_bicycle" depart="1052.13" departLane="best" from="-143308527#0" to="887910341#3"/>
    <trip id="bike115" type="bike_bicycle" depart="1061.36" departLane="best" from="142575655#20" to="-149670376"/>
    <trip id="bike116" type="bike_bicycle" depart="1070.59" departLane="best" departSpeed="max" from="142575677#0" to="24733616"/>
    <trip id="bike117" type="bike_bicycle" depart="1079.81" departLane="best" from="257072321#14" to="-142575690#0"/>
    <trip id="bike118" type="bike_bicycle" depart="1089.04" departLane="best" from="679901151" to="-26843019#4"/>
    <trip id="bike119" type="bike_bicycle" depart="1098.27" departLane="best" departSpeed="max" from="142575677#0" to="143308646#1"/>
    <trip id="bike120" type="bike_bicycle" depart="1107.50" departLane="best" departSpeed="max" from="-840101824#1" to="142575737#0"/>
    <trip id="bike121" type="bike_bicycle" depart="1116.73" departLane="best" from="115227682#1" to="843949729"/>
    <trip id="bike122" type="bike_bicycle" depart="1125.96" departLane="best" from="-180789857#7" to="26843019#0"/>
    <trip id="bike123" type="bike_bicycle" depart="1135.19" departLane="best" from="-257072321#8" to="-875752724#1"/>
    <trip id="bike124" type="bike_bicycle" depart="1144.42" departLane="best" from="-143308527#8" to="-38507369#1"/>
    <trip id="bike125" type="bike_bicycle" depart="1153.65" departLane="best" from="-397678492#0" to="314415495#4"/>
    <trip id="bike126" type="bike_bicycle" depart="1162.88" departLane="best" departSpeed="max" from="-137483015#2" to="114952399#1"/>
    <trip id="bike127" type="bike_bicycle" depart="1172.11" departLane="best" from="-998133305" to="-976918148#3"/>
    <trip id="bike128" type="bike_bicycle" depart="1181.34" departLane="best" departSpeed="max" from="-137483015#2" to="246099079"/>
    <trip id="bike129" type="bike_bicycle" depart="1190.56" departLane="best" from="-28888490#1" to="843832588#1"/>
    <trip id="bike130" type="bike_bicycle" depart="1199.79" departLane="best" from="-616846343#0" to="702305710#0"/>
    <trip id="bike131" type="bike_bicycle" depart="1209.02" departLane="best" departSpeed="max" from="-579269947#1" to="-143308493#1"/>
    <trip id="bike133" type="bike_bicycle" depart="1227.48" departLane="best" departSpeed="max" from="142575690#0" to="976390654#4"/>
    <trip id="bike134" type="bike_bicycle" depart="1236.71" departLane="best" from="-142575737#3" to="-1050728732"/>
    <trip id="bike135" type="bike_bicycle" depart="1245.94" departLane="best" from="334308447#4" to="-38507369#0"/>
    <trip id="bike136" type="bike_bicycle" depart="1255.17" departLane="best" departSpeed="max" from="143308521#0" to="843949736"/>
    <trip id="bike137" type="bike_bicycle" depart="1264.40" departLane="best" from="142575704#5" to="-142575688#5"/>
    <trip id="bike138" type="bike_bicycle" depart="1273.63" departLane="best" from="-142575688#6" to="142575693#6"/>
    <trip id="bike139" type="bike_bicycle" depart="1282.86" departLane="best" from="31100755#1" to="-142575674#5"/>
    <trip id="bike140" type="bike_bicycle" depart="1292.09" departLane="best" from="-180800504#2" to="180789857#9"/>
    <trip id="bike141" type="bike_bicycle" depart="1301.31" departLane="best" from="142575701#2" to="31344737#1"/>
    <trip id="bike142" type="bike_bicycle" depart="1310.54" departLane="best" from="1051263372#1" to="840101824#1"/>
    <trip id="bike143" type="bike_bicycle" depart="1319.77" departLane="best" from="45875459#5" to="-142575656#1"/>
    <trip id="bike144" type="bike_bicycle" depart="1329.00" departLane="best" from="-841345129#6" to="-314415495#5"/>
    <trip id="bike145" type="bike_bicycle" depart="1338.23" departLane="best" from="-1050686766#2" to="334308450#2"/>
    <trip id="bike146" type="bike_bicycle" depart="1347.46" departLane="best" from="-142575704#1" to="-31100755#2"/>
    <trip id="bike147" type="bike_bicycle" depart="1356.69" departLane="best" from="257072321#14" to="142575693#3"/>
    <trip id="bike148" type="bike_bicycle" depart="1365.92" departLane="best" from="-841345135#0" to="-1051263372#1"/>
    <trip id="bike149" type="bike_bicycle" depart="1375.15" departLane="best" from="-142575655#10" to="71028777#2"/>
    <trip id="bike150" type="bike_bicycle" depart="1384.38" departLane="best" from="702305709#1" to="142575691#5"/>
    <trip id="bike151" type="bike_bicycle" depart="1393.61" departLane="best" departSpeed="max" from="40985814#0" to="142575734#0"/>
    <trip id="bike152" type="bike_bicycle" depart="1402.84" departLane="best" from="-142598710#2" to="142575694#3"/>
    <trip id="bike153" type="bike_bicycle" depart="1412.06" departLane="best" departSpeed="max" from="-357043349#1" to="81096614"/>
    <trip id="bike154" type="bike_bicycle" depart="1421.29" departLane="best" from="314415495#2" to="670062909#1"/>
    <trip id="bike156" type="bike_bicycle" depart="1439.75" departLane="best" from="-26816413#0" to="-142575661#4"/>
    <trip id="bike157" type="bike_bicycle" depart="1448.98" departLane="best" from="-31050360#2" to="71028777#5"/>
    <trip id="bike158" type="bike_bicycle" depart="1458.21" departLane="best" departSpeed="max" from="-722869703#1" to="143308669#1"/>
    <trip id="bike159" type="bike_bicycle" depart="1467.44" departLane="best" from="143308505#3" to="843832577#1"/>
    <trip id="bike160" type="bike_bicycle" depart="1476.67" departLane="best" from="52081116#8" to="887919962#7"/>
    <trip id="bike161" type="bike_bicycle" depart="1485.90" departLane="best" from="-328287315#1" to="71028777#0"/>
    <trip id="bike162" type="bike_bicycle" depart="1495.13" departLane="best" from="-1144883445#0" to="-31100755#2"/>
    <trip id="bike163" type="bike_bicycle" depart="1504.36" departLane="best" from="45875459#1" to="843832585#1"/>
    <trip id="bike164" type="bike_bicycle" depart="1513.59" departLane="best" from="318210361#1" to="-679894150"/>
    <trip id="bike165" type="bike_bicycle" depart="1522.81" departLane="best" from="-328287315#1" to="-314415495#0"/>
    <trip id="bike166" type="bike_bicycle" depart="1532.04" departLane="best" departSpeed="max" from="313964778#0" to="-142575677#1"/>
    <trip id="bike167" type="bike_bicycle" depart="1541.27" departLane="best" from="-579026244" to="670062907#1"/>
    <trip id="bike169" type="bike_bicycle" depart="1559.73" departLane="best" from="-887919959#4" to="-40636828#0"/>
    <trip id="bike170" type="bike_bicycle" depart="1568.96" departLane="best" from="314415495#18" to="-257072321#3"/>
    <trip id="bike171" type="bike_bicycle" depart="1578.19" departLane="best" departSpeed="max" from="-114285336#1" to="180789857#0"/>
    <trip id="bike172" type="bike_bicycle" depart="1587.42" departLane="best" departSpeed="max" from="-439105525#1" to="-679901151"/>
    <trip id="bike173" type="bike_bicycle" depart="1596.65" departLane="best" from="-887919959#4" to="318210373#0"/>
    <trip id="bike174" type="bike_bicycle" depart="1605.88" departLane="best" from="-142575704#20" to="887919960#1"/>
    <trip id="bike175" type="bike_bicycle" depart="1615.11" departLane="best" from="92914055#5" to="142575688#2"/>
    <trip id="bike176" type="bike_bicycle" depart="1624.34" departLane="best" from="-843949737" to="142575688#5"/>
    <trip id="bike177" type="bike_bicycle" depart="1633.57" departLane="best" from="887919962#0" to="143482763"/>
    <trip id="bike178" type="bike_bicycle" depart="1642.79" departLane="best" from="887910341#5" to="-31344738#0"/>
    <trip id="bike179" type="bike_bicycle" depart="1652.02" departLane="best" from="-142575688#8" to="1051578539#3"/>
    <trip id="bike180" type="bike_bicycle" depart="1661.25" departLane="best" from="-24733617#0" to="-412992935#2"/>
    <trip id="bike181" type="bike_bicycle" depart="1670.48" departLane="best" from="-142575688#3" to="-142575656#0"/>
    <trip id="bike182" type="bike_bicycle" depart="1679.71" departLane="best" from="-670062913#0" to="142575710#1"/>
    <trip id="bike183" type="bike_bicycle" depart="1688.94" departLane="best" from="26843019#2" to="26004868#1"/>
    <trip id="bike184" type="bike_bicycle" depart="1698.17" departLane="best" departSpeed="max" from="-1050686759" to="841976402#1"/>
    <trip id="bike185" type="bike_bicycle" depart="1707.40" departLane="best" departSpeed="max" from="1155396208#0" to="26843133"/>
    <trip id="bike186" type="bike_bicycle" depart="1716.63" departLane="best" from="257072321#3" to="24152326#1"/>
    <trip id="bike187" type="bike_bicycle" depart="1725.86" departLane="best" from="-579269913#0" to="-1157488012"/>
    <trip id="bike188" type="bike_bicycle" depart="1735.09" departLane="best" departSpeed="max" from="143308521#0" to="-52081075#2"/>
    <trip id="bike189" type="bike_bicycle" depart="1744.32" departLane="best" from="-38507369#2" to="581636336#1"/>
    <trip id="bike190" type="bike_bicycle" depart="1753.54" departLane="best" from="-230625607#0" to="-38507369#2"/>
    <trip id="bike191" type="bike_bicycle" depart="1762.77" departLane="best" departSpeed="max" from="-357043349#1" to="976699223#0"/>
    <trip id="bike192" type="bike_bicycle" depart="1772.00" departLane="best" from="-71028777#0" to="-33690600#2"/>
    <trip id="bike193" type="bike_bicycle" depart="1781.23" departLane="best" from="142575704#10" to="-1050686766#1"/>
    <trip id="bike194" type="bike_bicycle" depart="1790.46" departLane="best" from="848515498" to="-24733617#2"/>
    <trip id="bike196" type="bike_bicycle" depart="1808.92" departLane="best" from="328868438#1" to="142575692#5"/>
    <trip id="bike197" type="bike_bicycle" depart="1818.15" departLane="best" from="1050686757#0" to="314415495#12"/>
    <trip id="bike198" type="bike_bicycle" depart="1827.38" departLane="best" from="-841345139#1" to="142575726#1"/>
    <trip id="bike199" type="bike_bicycle" depart="1836.61" departLane="best" from="142575737#4" to="1155013353"/>
    <trip id="bike200" type="bike_bicycle" depart="1845.84" departLane="best" departSpeed="max" from="-843832577#1" to="24733617#0"/>
    <trip id="bike201" type="bike_bicycle" depart="1855.07" departLane="best" from="-976918148#0" to="840101798"/>
    <trip id="bike202" type="bike_bicycle" depart="1864.29" departLane="best" from="314415495#2" to="143308527#5"/>
    <trip id="bike203" type="bike_bicycle" depart="1873.52" departLane="best" from="142575656#1" to="142575656#15"/>
    <trip id="bike204" type="bike_bicycle" depart="1882.75" departLane="best" from="142575700#7" to="-558305348#0"/>
    <trip id="bike205" type="bike_bicycle" depart="1891.98" departLane="best" from="334308450#2" to="-314415495#3"/>
    <trip id="bike206" type="bike_bicycle" depart="1901.21" departLane="best" from="143308542#1" to="-257072321#11"/>
    <trip id="bike207" type="bike_bicycle" depart="1910.44" departLane="best" from="-180789857#14" to="1144883445#3"/>
    <trip id="bike208" type="bike_bicycle" depart="1919.67" departLane="best" from="-26004868#0" to="1155419491#1"/>
    <trip id="bike209" type="bike_bicycle" depart="1928.90" departLane="best" from="-461093303#1" to="-1157627068"/>
    <trip id="bike210" type="bike_bicycle" depart="1938.13" departLane="best" from="81096582#3" to="143482774#0"/>
    <trip id="bike211" type="bike_bicycle" depart="1947.36" departLane="best" from="-158228538#0" to="25728863#0"/>
    <trip id="bike212" type="bike_bicycle" depart="1956.59" departLane="best" from="1051578542#1" to="26843019#1"/>
    <trip id="bike213" type="bike_bicycle" depart="1965.82" departLane="best" from="-142575737#6" to="1050728695#3"/>
    <trip id="bike215" type="bike_bicycle" depart="1984.27" departLane="best" from="-142575688#6" to="1050728696"/>
    <trip id="bike216" type="bike_bicycle" depart="1993.50" departLane="best" departSpeed="max" from="-143482765#1" to="887910341#22"/>
    <trip id="bike217" type="bike_bicycle" depart="2002.73" departLane="best" departSpeed="max" from="1149091031#0" to="-1155396208#0"/>
    <trip id="bike218" type="bike_bicycle" depart="2011.96" departLane="best" departSpeed="max" from="-26816162#1" to="581636336#1"/>
    <trip id="bike219" type="bike_bicycle" depart="2021.19" departLane="best" departSpeed="max" from="-875752723" to="-45875465"/>
    <trip id="bike220" type="bike_bicycle" depart="2030.42" departLane="best" from="-1157488013#0" to="976390654#5"/>
    <trip id="bike221" type="bike_bicycle" depart="2039.65" departLane="best" from="142575677#1" to="887910341#0"/>
    <trip id="bike222" type="bike_bicycle" depart="2048.88" departLane="best" departSpeed="max" from="683917425" to="143308587#1"/>
    <trip id="bike223" type="bike_bicycle" depart="2058.11" departLane="best" from="206889086#1" to="142575655#14"/>
    <trip id="bike224" type="bike_bicycle" depart="2067.34" departLane="best" from="40636828#1" to="142575692#4"/>
    <trip id="bike225" type="bike_bicycle" depart="2076.57" departLane="best" from="-689735906#0" to="-314415495#1"/>
    <trip id="bike226" type="bike_bicycle" depart="2085.80" departLane="best" from="-976918148#2" to="-302943909#2"/>
    <trip id="bike227" type="bike_bicycle" depart="2095.02" departLane="best" from="26004868#3" to="-149670379#0"/>
    <trip id="bike228" type="bike_bicycle" depart="2104.25" departLane="best" from="-125399002#0" to="142575661#1"/>
    <trip id="bike229" type="bike_bicycle" depart="2113.48" departLane="best" from="-142575694#2" to="-314415495#23"/>
    <trip id="bike230" type="bike_bicycle" depart="2122.71" departLane="best" from="142575655#14" to="-328287315#1"/>
    <trip id="bike231" type="bike_bicycle" depart="2131.94" departLane="best" from="-31050360#2" to="-45875459#1"/>
    <trip id="bike232" type="bike_bicycle" depart="2141.17" departLane="best" departSpeed="max" from="1155398308#0" to="-142575704#12"/>
    <trip id="bike233" type="bike_bicycle" depart="2150.40" departLane="best" from="257072321#0" to="257072321#5"/>
    <trip id="bike234" type="bike_bicycle" depart="2159.63" departLane="best" from="-180789857#10" to="-1155421474#1"/>
    <trip id="bike235" type="bike_bicycle" depart="2168.86" departLane="best" from="-774644126#1" to="-142575690#2"/>
    <trip id="bike236" type="bike_bicycle" depart="2178.09" departLane="best" departSpeed="max" from="-840101798" to="-180800504#4"/>
    <trip id="bike237" type="bike_bicycle" depart="2187.32" departLane="best" from="-689735906#0" to="840101824#1"/>