<?xml version="1.0" encoding="UTF-8"?>

<!-- generated on 2022-04-25 11:51:44 by Eclipse SUMO duarouter Version v1_12_0+2249-58f10332714
<configuration xmlns:xsi="http://www.w3.org/2001/XMLSchema-instance" xsi:noNamespaceSchemaLocation="http://sumo.dlr.de/xsd/duarouterConfiguration.xsd">

    <input>
        <net-file value="osm.net.xml"/>
        <route-files value="osm.passenger.trips.xml"/>
    </input>

    <output>
        <output-file value="osm.passenger.trips.xml.tmp"/>
        <write-trips value="true"/>
    </output>

    <time>
        <begin value="0"/>
        <end value="3600"/>
    </time>

    <report>
        <no-warnings value="true"/>
        <ignore-errors value="true"/>
        <no-step-log value="true"/>
    </report>

</configuration>
-->

<routes xmlns:xsi="http://www.w3.org/2001/XMLSchema-instance" xsi:noNamespaceSchemaLocation="http://sumo.dlr.de/xsd/routes_file.xsd">
    <vType id="veh_passenger" vClass="passenger"/>
    <trip id="veh0" type="veh_passenger" depart="0.00" departLane="best" departSpeed="max" from="292525977" to="-170149081#1"/>
    <trip id="veh2" type="veh_passenger" depart="4.22" departLane="best" departSpeed="max" from="22721677#0" to="-170149081#1"/>
    <trip id="veh3" type="veh_passenger" depart="6.32" departLane="best" departSpeed="max" from="145586617#0" to="216169544#0"/>
    <trip id="veh5" type="veh_passenger" depart="10.54" departLane="best" departSpeed="max" from="292525977" to="22917233#0"/>
    <trip id="veh9" type="veh_passenger" depart="18.97" departLane="best" from="206579068" to="10860201#0"/>
    <trip id="veh10" type="veh_passenger" depart="21.08" departLane="best" from="-339558638#6" to="-81535329#13"/>
    <trip id="veh12" type="veh_passenger" depart="25.30" departLane="best" from="431573406#0" to="339558638#0"/>
    <trip id="veh13" type="veh_passenger" depart="27.40" departLane="best" from="206579079" to="25368900#0"/>
    <trip id="veh14" type="veh_passenger" depart="29.51" departLane="best" from="472236111#0" to="27077898#0"/>
    <trip id="veh17" type="veh_passenger" depart="35.84" departLane="best" from="192530508#0" to="145586607"/>
    <trip id="veh19" type="veh_passenger" depart="40.05" departLane="best" from="-54039620#2" to="145586607"/>
    <trip id="veh20" type="veh_passenger" depart="42.16" departLane="best" departSpeed="max" from="292525977" to="19791219"/>
    <trip id="veh22" type="veh_passenger" depart="46.38" departLane="best" departSpeed="max" from="19791220" to="868347084"/>
    <trip id="veh23" type="veh_passenger" depart="48.48" departLane="best" departSpeed="max" from="292525977" to="26547179"/>
    <trip id="veh24" type="veh_passenger" depart="50.59" departLane="best" from="11279544#0" to="339558638#0"/>
    <trip id="veh25" type="veh_passenger" depart="52.70" departLane="best" from="10860201#0" to="206579065"/>
    <trip id="veh27" type="veh_passenger" depart="56.92" departLane="best" from="54039595#0" to="431573403"/>
    <trip id="veh28" type="veh_passenger" depart="59.02" departLane="best" from="194895343#0" to="-170149081#1"/>
    <trip id="veh29" type="veh_passenger" depart="61.13" departLane="best" from="206579066#0" to="145586607"/>
    <trip id="veh30" type="veh_passenger" depart="63.24" departLane="best" departSpeed="max" from="145586617#0" to="868347084"/>
    <trip id="veh31" type="veh_passenger" depart="65.35" departLane="best" from="745656019#0" to="145586607"/>
    <trip id="veh32" type="veh_passenger" depart="67.46" departLane="best" from="292526263" to="206579067"/>
    <trip id="veh36" type="veh_passenger" depart="75.89" departLane="best" from="998166558" to="216169546#0"/>
    <trip id="veh37" type="veh_passenger" depart="78.00" departLane="best" from="-33234956#1" to="-206579065"/>
    <trip id="veh38" type="veh_passenger" depart="80.11" departLane="best" from="-746625193#2" to="27077902#0"/>
    <trip id="veh39" type="veh_passenger" depart="82.21" departLane="best" from="431573404#0" to="206579070"/>
    <trip id="veh40" type="veh_passenger" depart="84.32" departLane="best" departSpeed="max" from="-145009991#3" to="206579065"/>
    <trip id="veh41" type="veh_passenger" depart="86.43" departLane="best" from="998166558" to="22917228#0"/>
    <trip id="veh43" type="veh_passenger" depart="90.65" departLane="best" departSpeed="max" from="-1013117571#1" to="33234937#0"/>
    <trip id="veh44" type="veh_passenger" depart="92.75" departLane="best" from="292526263-AddedOffRampEdge" to="22917228#0"/>
    <trip id="veh46" type="veh_passenger" depart="96.97" departLane="best" departSpeed="max" from="22721677#0" to="868347084"/>
    <trip id="veh47" type="veh_passenger" depart="99.08" departLane="best" from="745656019#0" to="145586607"/>
    <trip id="veh48" type="veh_passenger" depart="101.19" departLane="best" departSpeed="max" from="25368900#0" to="11279895#0"/>
    <trip id="veh51" type="veh_passenger" depart="107.51" departLane="best" departSpeed="max" from="292525977" to="10860201#0"/>
    <trip id="veh53" type="veh_passenger" depart="111.73" departLane="best" from="431573403" to="22917228#0"/>
    <trip id="veh54" type="veh_passenger" depart="113.83" departLane="best" departSpeed="max" from="-1013117571#1" to="145586607"/>
    <trip id="veh55" type="veh_passenger" depart="115.94" departLane="best" departSpeed="max" from="-1013117571#1" to="862741108"/>
    <trip id="veh56" type="veh_passenger" depart="118.05" departLane="best" from="745656019#0" to="52783765#0"/>
    <trip id="veh57" type="veh_passenger" depart="120.16" departLane="best" from="206579065" to="-33234937#10"/>
    <trip id="veh58" type="veh_passenger" depart="122.27" departLane="best" from="745656019#0" to="868347084"/>
    <trip id="veh59" type="veh_passenger" depart="124.37" departLane="best" from="-33234937#10" to="206579088"/>
    <trip id="veh60" type="veh_passenger" depart="126.48" departLane="best" from="-145586617#31" to="407167843#0"/>
    <trip id="veh61" type="veh_passenger" depart="128.59" departLane="best" from="348583833#0" to="1003191667#1"/>
    <trip id="veh63" type="veh_passenger" depart="132.81" departLane="best" departSpeed="max" from="19791220" to="663605951#0"/>
    <trip id="veh65" type="veh_passenger" depart="137.02" departLane="best" from="26547171#2" to="339558638#0"/>
    <trip id="veh66" type="veh_passenger" depart="139.13" departLane="best" departSpeed="max" from="145586617#0" to="145586607"/>
    <trip id="veh68" type="veh_passenger" depart="143.35" departLane="best" departSpeed="max" from="22721677#0" to="22721677#0"/>
    <trip id="veh72" type="veh_passenger" depart="151.78" departLane="best" from="-206579065" to="27077902#0"/>
    <trip id="veh73" type="veh_passenger" depart="153.89" departLane="best" from="194895343#0" to="81414476#0"/>
    <trip id="veh74" type="veh_passenger" depart="155.99" departLane="best" from="541676222" to="-53087792#10"/>
    <trip id="veh76" type="veh_passenger" depart="160.21" departLane="best" departSpeed="max" from="145586617#0" to="1003191667#1"/>
    <trip id="veh80" type="veh_passenger" depart="168.64" departLane="best" from="-53087792#10" to="206579071"/>
    <trip id="veh82" type="veh_passenger" depart="172.86" departLane="best" from="97206934#0" to="-81535329#13"/>
    <trip id="veh83" type="veh_passenger" depart="174.97" departLane="best" from="216169544#0" to="145586622#0"/>
    <trip id="veh86" type="veh_passenger" depart="181.29" departLane="best" departSpeed="max" from="22721677#0" to="145586607"/>
    <trip id="veh87" type="veh_passenger" depart="183.40" departLane="best" departSpeed="max" from="22721677#0" to="541676222"/>
    <trip id="veh88" type="veh_passenger" depart="185.51" departLane="best" from="26547172#0" to="-206579070"/>
    <trip id="veh89" type="veh_passenger" depart="187.61" departLane="best" from="998166558" to="53385386#0"/>
    <trip id="veh90" type="veh_passenger" depart="189.72" departLane="best" from="54039595#0" to="11279544#0"/>
    <trip id="veh93" type="veh_passenger" depart="196.05" departLane="best" from="206579079" to="97206934#0"/>
    <trip id="veh94" type="veh_passenger" depart="198.16" departLane="best" departSpeed="max" from="19791220" to="431573404#0"/>
    <trip id="veh95" type="veh_passenger" depart="200.26" departLane="best" departSpeed="max" from="22721677#0" to="206579070"/>
    <trip id="veh96" type="veh_passenger" depart="202.37" departLane="best" from="862741106" to="998166558"/>
    <trip id="veh97" type="veh_passenger" depart="204.48" departLane="best" departSpeed="max" from="1003191656#0" to="145586607"/>
    <trip id="veh98" type="veh_passenger" depart="206.59" departLane="best" from="26547171#2" to="348583833#0"/>
    <trip id="veh100" type="veh_passenger" depart="210.80" departLane="best" departSpeed="max" from="25368900#0" to="54039620#0"/>
    <trip id="veh101" type="veh_passenger" depart="212.91" departLane="best" departSpeed="max" from="1003191656#0" to="868347084"/>
    <trip id="veh102" type="veh_passenger" depart="215.02" departLane="best" from="-25368898#9" to="145009985#0"/>
    <trip id="veh103" type="veh_passenger" depart="217.13" departLane="best" departSpeed="max" from="292525977" to="318210393#0"/>
    <trip id="veh104" type="veh_passenger" depart="219.24" departLane="best" from="194895343#0" to="1003191667#1"/>
    <trip id="veh106" type="veh_passenger" depart="223.45" departLane="best" departSpeed="max" from="292525977" to="27077898#0"/>
    <trip id="veh107" type="veh_passenger" depart="225.56" departLane="best" departSpeed="max" from="22721677#0" to="26547171#2"/>
    <trip id="veh109" type="veh_passenger" depart="229.78" departLane="best" from="194896804#0" to="206579067"/>
    <trip id="veh110" type="veh_passenger" depart="231.88" departLane="best" from="206579066#0" to="348583833#0"/>
    <trip id="veh113" type="veh_passenger" depart="238.21" departLane="best" departSpeed="max" from="19791220" to="862741108"/>
    <trip id="veh114" type="veh_passenger" depart="240.32" departLane="best" from="745656019#0" to="72230301#0"/>
    <trip id="veh115" type="veh_passenger" depart="242.42" departLane="best" from="206579073" to="10860201#0"/>
    <trip id="veh117" type="veh_passenger" depart="246.64" departLane="best" departSpeed="max" from="292525977" to="97206934#0"/>
    <trip id="veh119" type="veh_passenger" depart="250.86" departLane="best" from="431573407#0" to="145586607"/>
    <trip id="veh120" type="veh_passenger" depart="252.96" departLane="best" from="292526263" to="868347084"/>
    <trip id="veh121" type="veh_passenger" depart="255.07" departLane="best" from="-54039620#2" to="25368900#0"/>
    <trip id="veh122" type="veh_passenger" depart="257.18" departLane="best" departSpeed="max" from="19791220" to="26547172#0"/>
    <trip id="veh123" type="veh_passenger" depart="259.29" departLane="best" from="54039595#0" to="-81535329#13"/>
    <trip id="veh124" type="veh_passenger" depart="261.40" departLane="best" departSpeed="max" from="22721677#0" to="145586607"/>
    <trip id="veh125" type="veh_passenger" depart="263.50" departLane="best" departSpeed="max" from="-1013117571#1" to="407167843#0"/>
    <trip id="veh126" type="veh_passenger" depart="265.61" departLane="best" from="33234937#0" to="25368900#0"/>
    <trip id="veh127" type="veh_passenger" depart="267.72" departLane="best" departSpeed="max" from="22721677#0" to="-145586617#31"/>
    <trip id="veh128" type="veh_passenger" depart="269.83" departLane="best" from="-206579070" to="72230301#0"/>
    <trip id="veh130" type="veh_passenger" depart="274.04" departLane="best" from="206579065" to="745656019#0"/>
    <trip id="veh131" type="veh_passenger" depart="276.15" departLane="best" from="431573405#0" to="541676222"/>
    <trip id="veh132" type="veh_passenger" depart="278.26" departLane="best" from="19791219" to="-81535329#13"/>
    <trip id="veh133" type="veh_passenger" depart="280.37" departLane="best" from="431573404#0" to="72230301#0"/>
    <trip id="veh134" type="veh_passenger" depart="282.48" departLane="best" from="216169544#0" to="27077898#0"/>
    <trip id="veh135" type="veh_passenger" depart="284.58" departLane="best" departSpeed="max" from="1003191656#0" to="862741108"/>
    <trip id="veh136" type="veh_passenger" depart="286.69" departLane="best" from="541676222" to="872231978"/>
    <trip id="veh137" type="veh_passenger" depart="288.80" departLane="best" from="431573406#0" to="72230301#0"/>
    <trip id="veh138" type="veh_passenger" depart="290.91" departLane="best" from="-129519181#1" to="348583831#0"/>
    <trip id="veh139" type="veh_passenger" depart="293.02" departLane="best" from="206579068" to="862741108"/>
    <trip id="veh140" type="veh_passenger" depart="295.12" departLane="best" from="431573405#0" to="541676222"/>
    <trip id="veh141" type="veh_passenger" depart="297.23" departLane="best" from="431573406#0" to="145586607"/>
    <trip id="veh142" type="veh_passenger" depart="299.34" departLane="best" from="431573404#0" to="-81535329#13"/>
    <trip id="veh143" type="veh_passenger" depart="301.45" departLane="best" from="22721677#4" to="145586607"/>
    <trip id="veh146" type="veh_passenger" depart="307.77" departLane="best" from="206579067" to="541676222"/>
    <trip id="veh148" type="veh_passenger" depart="311.99" departLane="best" departSpeed="max" from="292525977" to="206579067"/>
    <trip id="veh149" type="veh_passenger" depart="314.10" departLane="best" from="97206934#0" to="22917228#0"/>
    <trip id="veh152" type="veh_passenger" depart="320.42" departLane="best" from="862741106" to="145586607"/>
    <trip id="veh153" type="veh_passenger" depart="322.53" departLane="best" from="318210401#0" to="145586607"/>
    <trip id="veh158" type="veh_passenger" depart="333.07" departLane="best" from="206579073" to="-53087792#10"/>
    <trip id="veh159" type="veh_passenger" depart="335.18" departLane="best" from="318210399#0" to="145586607"/>
    <trip id="veh160" type="veh_passenger" depart="337.29" departLane="best" departSpeed="max" from="1003191656#0" to="206579070"/>
    <trip id="veh163" type="veh_passenger" depart="343.61" departLane="best" from="204721580#0" to="25368898#0"/>
    <trip id="veh164" type="veh_passenger" depart="345.72" departLane="best" departSpeed="max" from="-1013117571#1" to="145586607"/>
    <trip id="veh165" type="veh_passenger" depart="347.83" departLane="best" departSpeed="max" from="22721677#0" to="26547171#0"/>
    <trip id="veh166" type="veh_passenger" depart="349.93" departLane="best" from="292526263" to="206579082"/>
    <trip id="veh169" type="veh_passenger" depart="356.26" departLane="best" from="431573405#0" to="11279822#0"/>
    <trip id="veh172" type="veh_passenger" depart="362.58" departLane="best" from="431573407#0" to="348583833#0"/>
    <trip id="veh173" type="veh_passenger" depart="364.69" departLane="best" from="292526263-AddedOffRampEdge" to="145586606"/>
    <trip id="veh175" type="veh_passenger" depart="368.91" departLane="best" from="54039595#0" to="-53087792#10"/>
    <trip id="veh176" type="veh_passenger" depart="371.01" departLane="best" from="216169546#0" to="27077902#0"/>
    <trip id="veh180" type="veh_passenger" depart="379.45" departLane="best" from="339558638#0" to="407167843#0"/>
    <trip id="veh181" type="veh_passenger" depart="381.55" departLane="best" from="-54039620#2" to="206579071"/>
    <trip id="veh182" type="veh_passenger" depart="383.66" departLane="best" from="11279544#0" to="868347084"/>
    <trip id="veh183" type="veh_passenger" depart="385.77" departLane="best" from="25944425#0" to="-206579070"/>
    <trip id="veh184" type="veh_passenger" depart="387.88" departLane="best" from="19791219" to="54039595#0"/>
    <trip id="veh185" type="veh_passenger" depart="389.99" departLane="best" from="22721677#4" to="431573405#0"/>
    <trip id="veh186" type="veh_passenger" depart="392.09" departLane="best" from="292526263" to="998166558"/>
    <trip id="veh187" type="veh_passenger" depart="394.20" departLane="best" departSpeed="max" from="292525977" to="868347084"/>
    <trip id="veh188" type="veh_passenger" depart="396.31" departLane="best" from="81414476#0" to="26547179"/>
    <trip id="veh189" type="veh_passenger" depart="398.42" departLane="best" from="318210399#0" to="216169544#0"/>
    <trip id="veh190" type="veh_passenger" depart="400.53" departLane="best" from="52783765#0" to="25368898#0"/>
    <trip id="veh192" type="veh_passenger" depart="404.74" departLane="best" from="22917228#0" to="145586607"/>
    <trip id="veh194" type="veh_passenger" depart="408.96" departLane="best" from="-206579070" to="145586607"/>
    <trip id="veh195" type="veh_passenger" depart="411.07" departLane="best" departSpeed="max" from="19791220" to="145586607"/>
    <trip id="veh196" type="veh_passenger" depart="413.17" departLane="best" from="26547171#2" to="1003191667#1"/>
    <trip id="veh197" type="veh_passenger" depart="415.28" departLane="best" from="194895343#0" to="318210393#2"/>
    <trip id="veh201" type="veh_passenger" depart="423.71" departLane="best" departSpeed="max" from="22721677#0" to="745656019#0"/>
    <trip id="veh202" type="veh_passenger" depart="425.82" departLane="best" from="541676222" to="407167843#0"/>
    <trip id="veh205" type="veh_passenger" depart="432.15" departLane="best" from="54039620#0" to="868347084"/>
    <trip id="veh206" type="veh_passenger" depart="434.25" departLane="best" departSpeed="max" from="22721677#0" to="348583833#0"/>
    <trip id="veh208" type="veh_passenger" depart="438.47" departLane="best" departSpeed="max" from="22721677#0" to="-170149081#1"/>
    <trip id="veh209" type="veh_passenger" depart="440.58" departLane="best" from="206579068" to="318210393#0"/>
    <trip id="veh211" type="veh_passenger" depart="444.79" departLane="best" departSpeed="max" from="292525977" to="-170149081#1"/>
    <trip id="veh214" type="veh_passenger" depart="451.12" departLane="best" departSpeed="max" from="-145009991#3" to="206579065"/>
    <trip id="veh215" type="veh_passenger" depart="453.23" departLane="best" departSpeed="max" from="145586617#0" to="145586607"/>
    <trip id="veh216" type="veh_passenger" depart="455.34" departLane="best" from="348583831#0" to="206579065"/>
    <trip id="veh217" type="veh_passenger" depart="457.44" departLane="best" from="348583831#0" to="52783765#0"/>
    <trip id="veh218" type="veh_passenger" depart="459.55" departLane="best" from="19791219" to="-54039620#2"/>
    <trip id="veh220" type="veh_passenger" depart="463.77" departLane="best" from="998166558" to="194895343#0"/>
    <trip id="veh221" type="veh_passenger" depart="465.88" departLane="best" departSpeed="max" from="292525977" to="431573403"/>
    <trip id="veh222" type="veh_passenger" depart="467.98" departLane="best" from="292526263" to="407167843#0"/>
    <trip id="veh223" type="veh_passenger" depart="470.09" departLane="best" departSpeed="max" from="-1013117571#1" to="10860201#0"/>
    <trip id="veh227" type="veh_passenger" depart="478.52" departLane="best" from="10860201#0" to="26547179"/>
    <trip id="veh228" type="veh_passenger" depart="480.63" departLane="best" from="339558638#0" to="1003191667#1"/>
    <trip id="veh229" type="veh_passenger" depart="482.74" departLane="best" from="431573407#0" to="868347084"/>
    <trip id="veh230" type="veh_passenger" depart="484.85" departLane="best" from="-746625193#2" to="-170149081#1"/>
    <trip id="veh231" type="veh_passenger" depart="486.96" departLane="best" from="206579066#0" to="318210393#0"/>
    <trip id="veh232" type="veh_passenger" depart="489.06" departLane="best" from="862741106" to="206579067"/>
    <trip id="veh233" type="veh_passenger" depart="491.17" departLane="best" from="318210399#0" to="-54039620#2"/>
    <trip id="veh234" type="veh_passenger" depart="493.28" departLane="best" from="-54039620#2" to="407167843#0"/>
    <trip id="veh236" type="veh_passenger" depart="497.50" departLane="best" departSpeed="max" from="1003191656#0" to="97206934#0"/>
    <trip id="veh237" type="veh_passenger" depart="499.60" departLane="best" from="431573404#0" to="194895343#0"/>
    <trip id="veh238" type="veh_passenger" depart="501.71" departLane="best" departSpeed="max" from="22721677#0" to="204721580#0"/>
    <trip id="veh239" type="veh_passenger" depart="503.82" departLane="best" departSpeed="max" from="25368900#0" to="145586622#0"/>
    <trip id="veh240" type="veh_passenger" depart="505.93" departLane="best" from="54039595#0" to="431573407#0"/>
    <trip id="veh241" type="veh_passenger" depart="508.04" departLane="best" from="-54039620#2" to="868347084"/>
    <trip id="veh242" type="veh_passenger" depart="510.14" departLane="best" departSpeed="max" from="292525977" to="472236111#0"/>
    <trip id="veh243" type="veh_passenger" depart="512.25" departLane="best" from="318210401#0" to="868347084"/>
    <trip id="veh244" type="veh_passenger" depart="514.36" departLane="best" departSpeed="max" from="19791220" to="431573406#0"/>
    <trip id="veh245" type="veh_passenger" depart="516.47" departLane="best" from="26547171#2" to="206579088"/>
    <trip id="veh246" type="veh_passenger" depart="518.58" departLane="best" departSpeed="max" from="22721677#0" to="339558638#0"/>
    <trip id="veh247" type="veh_passenger" depart="520.68" departLane="best" departSpeed="max" from="19791220" to="54039595#0"/>
    <trip id="veh249" type="veh_passenger" depart="524.90" departLane="best" from="206579079" to="-170149081#1"/>
    <trip id="veh250" type="veh_passenger" depart="527.01" departLane="best" from="54039620#0" to="145009985#0"/>
    <trip id="veh251" type="veh_passenger" depart="529.12" departLane="best" departSpeed="max" from="145586617#0" to="431573405#0"/>
    <trip id="veh252" type="veh_passenger" depart="531.22" departLane="best" from="206579068" to="72230301#0"/>
    <trip id="veh253" type="veh_passenger" depart="533.33" departLane="best" from="318210393#0" to="145586607"/>
    <trip id="veh254" type="veh_passenger" depart="535.44" departLane="best" departSpeed="max" from="-1013117571#1" to="868347084"/>
    <trip id="veh256" type="veh_passenger" depart="539.66" departLane="best" from="25368898#0" to="407167843#0"/>
    <trip id="veh258" type="veh_passenger" depart="543.87" departLane="best" departSpeed="max" from="25368900#0" to="431573404#0"/>
    <trip id="veh260" type="veh_passenger" depart="548.09" departLane="best" from="318210393#0" to="145586607"/>
    <trip id="veh262" type="veh_passenger" depart="552.30" departLane="best" from="33234956#0" to="145586607"/>
    <trip id="veh263" type="veh_passenger" depart="554.41" departLane="best" from="318210393#2" to="145586607"/>
    <trip id="veh264" type="veh_passenger" depart="556.52" departLane="best" from="19791219" to="1003191667#1"/>
    <trip id="veh265" type="veh_passenger" depart="558.63" departLane="best" from="145009985#0" to="1003191667#1"/>
    <trip id="veh266" type="veh_passenger" depart="560.74" departLane="best" from="26547171#2" to="407167843#0"/>
    <trip id="veh268" type="veh_passenger" depart="564.95" departLane="best" from="22917233#0" to="33234956#0"/>
    <trip id="veh270" type="veh_passenger" depart="569.17" departLane="best" departSpeed="max" from="19791220" to="-81535329#13"/>
    <trip id="veh273" type="veh_passenger" depart="575.49" departLane="best" from="26547171#0" to="145586607"/>
    <trip id="veh276" type="veh_passenger" depart="581.82" departLane="best" from="663605951#0" to="206579088"/>
    <trip id="veh278" type="veh_passenger" depart="586.03" departLane="best" from="11279858#0" to="-206579070"/>
    <trip id="veh279" type="veh_passenger" depart="588.14" departLane="best" from="472236111#0" to="206579067"/>
    <trip id="veh280" type="veh_passenger" depart="590.25" departLane="best" from="-206579065" to="27077902#0"/>
    <trip id="veh281" type="veh_passenger" depart="592.36" departLane="best" departSpeed="max" from="-145009991#3" to="1003191667#1"/>
    <trip id="veh283" type="veh_passenger" depart="596.57" departLane="best" from="998166558" to="1003191667#1"/>
    <trip id="veh284" type="veh_passenger" depart="598.68" departLane="best" from="348583833#0" to="26547179"/>
    <trip id="veh286" type="veh_passenger" depart="602.90" departLane="best" departSpeed="max" from="22721677#0" to="541676222"/>
    <trip id="veh287" type="veh_passenger" depart="605.01" departLane="best" from="998166558" to="145586607"/>
    <trip id="veh288" type="veh_passenger" depart="607.11" departLane="best" departSpeed="max" from="292525977" to="26547179"/>
    <trip id="veh289" type="veh_passenger" depart="609.22" departLane="best" from="33234937#0" to="868347084"/>
    <trip id="veh291" type="veh_passenger" depart="613.44" departLane="best" from="292526263" to="10860201#0"/>
    <trip id="veh292" type="veh_passenger" depart="615.55" departLane="best" from="11279544#0" to="-54039620#2"/>
    <trip id="veh296" type="veh_passenger" depart="623.98" departLane="best" from="431573404#0" to="27077898#0"/>
    <trip id="veh297" type="veh_passenger" depart="626.09" departLane="best" from="292526263" to="862741108"/>
    <trip id="veh298" type="veh_passenger" depart="628.19" departLane="best" departSpeed="max" from="22721677#0" to="22917233#0"/>
    <trip id="veh299" type="veh_passenger" depart="630.30" departLane="best" departSpeed="max" from="292525977" to="81414476#0"/>
    <trip id="veh300" type="veh_passenger" depart="632.41" departLane="best" from="472236111#0" to="-53087792#10"/>
    <trip id="veh301" type="veh_passenger" depart="634.52" departLane="best" from="10860201#0" to="145586607"/>
    <trip id="veh303" type="veh_passenger" depart="638.73" departLane="best" departSpeed="max" from="19791220" to="1003191667#1"/>
    <trip id="veh306" type="veh_passenger" depart="645.06" departLane="best" departSpeed="max" from="25368900#0" to="-54039620#2"/>
    <trip id="veh307" type="veh_passenger" depart="647.17" departLane="best" departSpeed="max" from="-141968830#1" to="206579071"/>
    <trip id="veh309" type="veh_passenger" depart="651.38" departLane="best" from="-339558638#6" to="868347084"/>
    <trip id="veh313" type="veh_passenger" depart="659.81" departLane="best" from="206579070" to="145586607"/>
    <trip id="veh314" type="veh_passenger" depart="661.92" departLane="best" from="292526263-AddedOffRampEdge" to="541676222"/>
    <trip id="veh315" type="veh_passenger" depart="664.03" departLane="best" from="206579067" to="318210393#2"/>
    <trip id="veh316" type="veh_passenger" depart="666.14" departLane="best" departSpeed="max" from="19791220" to="868347084"/>
    <trip id="veh317" type="veh_passenger" depart="668.25" departLane="best" departSpeed="max" from="22721677#0" to="145586607"/>
    <trip id="veh318" type="veh_passenger" depart="670.35" departLane="best" from="206579067" to="868347084"/>
    <trip id="veh321" type="veh_passenger" depart="676.68" departLane="best" from="26547171#2" to="206579068"/>
    <trip id="veh322" type="veh_passenger" depart="678.79" departLane="best" from="11279895#0" to="194896804#0"/>
    <trip id="veh323" type="veh_passenger" depart="680.89" departLane="best" from="348583831#0" to="27077898#0"/>
    <trip id="veh326" type="veh_passenger" depart="687.22" departLane="best" departSpeed="max" from="1003191656#0" to="868347084"/>
    <trip id="veh327" type="veh_passenger" depart="689.33" departLane="best" departSpeed="max" from="292525977" to="145586606"/>
    <trip id="veh328" type="veh_passenger" depart="691.43" departLane="best" departSpeed="max" from="1003191656#0" to="25368898#0"/>
    <trip id="veh329" type="veh_passenger" depart="693.54" departLane="best" from="26547172#0" to="-81535329#13"/>
    <trip id="veh330" type="veh_passenger" depart="695.65" departLane="best" from="998166558" to="81414476#0"/>
    <trip id="veh331" type="veh_passenger" depart="697.76" departLane="best" from="22721677#4" to="1003191667#1"/>
    <trip id="veh332" type="veh_passenger" depart="699.87" departLane="best" from="52783765#0" to="216169544#0"/>
    <trip id="veh333" type="veh_passenger" depart="701.97" departLane="best" from="318210399#0" to="216169546#0"/>
    <trip id="veh334" type="veh_passenger" depart="704.08" departLane="best" departSpeed="max" from="19791220" to="52783765#0"/>
    <trip id="veh336" type="veh_passenger" depart="708.30" departLane="best" from="26547172#0" to="206579065"/>
    <trip id="veh338" type="veh_passenger" depart="712.52" departLane="best" departSpeed="max" from="19791220" to="431573404#0"/>
    <trip id="veh339" type="veh_passenger" depart="714.62" departLane="best" departSpeed="max" from="22721677#0" to="868347084"/>
    <trip id="veh340" type="veh_passenger" depart="716.73" departLane="best" departSpeed="max" from="25368900#0" to="431573407#0"/>
    <trip id="veh341" type="veh_passenger" depart="718.84" departLane="best" departSpeed="max" from="19791220" to="145586607"/>
    <trip id="veh343" type="veh_passenger" depart="723.06" departLane="best" departSpeed="max" from="25368900#0" to="1003191667#1"/>
    <trip id="veh344" type="veh_passenger" depart="725.16" departLane="best" from="26547171#2" to="192530508#0"/>
    <trip id="veh345" type="veh_passenger" depart="727.27" departLane="best" departSpeed="max" from="22721677#0" to="145586607"/>
    <trip id="veh348" type="veh_passenger" depart="733.60" departLane="best" from="431573403" to="-170149081#1"/>
    <trip id="veh350" type="veh_passenger" depart="737.81" departLane="best" from="431573406#0" to="206579065"/>
    <trip id="veh351" type="veh_passenger" depart="739.92" departLane="best" from="292526263" to="431573407#0"/>
    <trip id="veh352" type="veh_passenger" depart="742.03" departLane="best" from="97206934#0" to="206579088"/>
    <trip id="veh353" type="veh_passenger" depart="744.14" departLane="best" departSpeed="max" from="-141968830#1" to="216169544#0"/>
    <trip id="veh354" type="veh_passenger" depart="746.24" departLane="best" departSpeed="max" from="292525977" to="663605951#0"/>