<?xml version="1.0" encoding="UTF-8"?>
<!-- generated on 2019-05-01 01:32:30.155738 by $Id$
  options: -n osm.net.xml -e 3600 -p 600 <doubleminus>random-begin <doubleminus>seed 42 <doubleminus>ptstops osm_stops.add.xml <doubleminus>ptlines osm_ptlines.xml -o osm_pt.rou.xml <doubleminus>ignore-errors <doubleminus>vtype-prefix pt_
-->
<routes xmlns:xsi="http://www.w3.org/2001/XMLSchema-instance" xsi:noNamespaceSchemaLocation="http://sumo.dlr.de/xsd/routes_file.xsd">
    <vType id="pt_bus" vClass="bus"/>
    <vType id="pt_tram" vClass="tram"/>
    <vType id="pt_train" vClass="rail"/>
    <vType id="pt_subway" vClass="rail_urban"/>
    <vType id="pt_light_rail" vClass="rail_urban"/>
    <vType id="pt_monorail" vClass="rail"/>
    <vType id="pt_trolleybus" vClass="bus"/>
    <vType id="pt_aerialway" vClass="bus"/>
    <vType id="pt_ferry" vClass="ship"/>
    <trip id="0_bus_160:0" type="pt_bus" depart="3" departLane="best" from="46039050#1" to="143308587#1">
        <stop busStop="837696524" duration="30"/>
        <stop busStop="1560223236" duration="30"/>
    </trip>
    <trip id="1_bus_162:0" type="pt_bus" depart="15" departLane="best" from="206889086#1" to="143308587#1">
        <stop busStop="1656195133" duration="30"/>
        <stop busStop="464396566" duration="30"/>
        <stop busStop="301331956" duration="30"/>
        <stop busStop="1560223236" duration="30"/>
    </trip>
    <trip id="2_bus_162:1" type="pt_bus" depart="15" departLane="best" from="143308542#1" to="458921214">
        <stop busStop="464396487" duration="30"/>
        <stop busStop="306982602" duration="30"/>
        <stop busStop="464396589" duration="30"/>
        <stop busStop="5315085711" duration="30"/>
    </trip>
    <trip id="3_bus_163:0" type="pt_bus" depart="17" departLane="best" from="204721579#2" to="206889086#1">
        <stop busStop="1383533462" duration="30"/>
        <stop busStop="1862990707" duration="30"/>
        <stop busStop="1656195133" duration="30"/>
    </trip>
    <trip id="4_bus_163:1" type="pt_bus" depart="52" departLane="best" from="458921214" to="318210360#0">
        <stop busStop="5315085711" duration="30"/>
        <stop busStop="3812676495" duration="30"/>
        <stop busStop="1383533461" duration="30"/>
    </trip>
    <trip id="5_bus_163:2" type="pt_bus" depart="55" departLane="best" from="70130339#0" to="318210360#0">
        <stop busStop="2050022025" duration="30"/>
        <stop busStop="-945142208" duration="30"/>
        <stop busStop="5315085711" duration="30"/>
        <stop busStop="3812676495" duration="30"/>
        <stop busStop="1383533461" duration="30"/>
    </trip>
    <trip id="6_bus_N60:0" type="pt_bus" depart="58" departLane="best" from="152839426" to="143308587#1">
        <stop busStop="1383533597" duration="30"/>
        <stop busStop="1656195133" duration="30"/>
        <stop busStop="464396566" duration="30"/>
        <stop busStop="301331956" duration="30"/>
        <stop busStop="1560223236" duration="30"/>
    </trip>
    <trip id="7_bus_260:0" type="pt_bus" depart="93" departLane="best" from="206889086#1" to="-314415495#3">
        <stop busStop="1656195133" duration="30"/>
        <stop busStop="-385200818" duration="30"/>
        <stop busStop="-1560223790" duration="30"/>
        <stop busStop="-1560223555" duration="30"/>
    </trip>
    <trip id="8_bus_N60:1" type="pt_bus" depart="119" departLane="best" from="152839426" to="143308587#1">
        <stop busStop="1383533597" duration="30"/>
        <stop busStop="1656195133" duration="30"/>
        <stop busStop="464396566" duration="30"/>
        <stop busStop="301331956" duration="30"/>
        <stop busStop="1560223236" duration="30"/>
    </trip>
    <trip id="9_bus_164:0" type="pt_bus" depart="131" departLane="best" from="-23913524#5" to="143308587#1">
        <stop busStop="-1383533494" duration="30"/>
        <stop busStop="1383533577" duration="30"/>
        <stop busStop="1383533575" duration="30"/>
        <stop busStop="1656195133" duration="30"/>
        <stop busStop="464396566" duration="30"/>
        <stop busStop="301331956" duration="30"/>
        <stop busStop="1560223236" duration="30"/>
    </trip>
    <trip id="10_tram_61:0" type="pt_tram" depart="132" departLane="best" from="158236729#0" to="-179699939#0">
        <stop busStop="1704693343" duration="30"/>
        <stop busStop="1704693389" duration="30"/>
        <stop busStop="1704693457" duration="30"/>
        <stop busStop="583899039" duration="30"/>
        <stop busStop="-766875150" duration="30"/>
    </trip>
    <trip id="11_tram_61:1" type="pt_tram" depart="133" departLane="best" from="179699938#2" to="158236384#0">
        <stop busStop="1704693444" duration="30"/>
        <stop busStop="1704693451" duration="30"/>
        <stop busStop="1704693381" duration="30"/>
        <stop busStop="1704693369" duration="30"/>
    </trip>
    <trip id="12_tram_63:0" type="pt_tram" depart="165" departLane="best" from="158236729#0" to="-179699939#0">
        <stop busStop="1704693343" duration="30"/>
        <stop busStop="1704693389" duration="30"/>
        <stop busStop="1704693457" duration="30"/>
        <stop busStop="583899039" duration="30"/>
        <stop busStop="-766875150" duration="30"/>
    </trip>
    <trip id="13_tram_63:1" type="pt_tram" depart="201" departLane="best" from="179699938#2" to="158236384#0">
        <stop busStop="1704693444" duration="30"/>
        <stop busStop="1704693451" duration="30"/>
        <stop busStop="1704693381" duration="30"/>
        <stop busStop="1704693369" duration="30"/>
    </trip>
    <trip id="14_light_rail_S45:0" type="pt_light_rail" depart="204" departLane="best" from="22917995" to="431786577">
        <stop busStop="3508654675" duration="30"/>
        <stop busStop="1095078213" duration="30"/>
    </trip>
    <trip id="15_light_rail_S45:1" type="pt_light_rail" depart="227" departLane="best" from="431786563" to="4782367">
        <stop busStop="30499135" duration="30"/>
        <stop busStop="30499115" duration="30"/>
    </trip>
    <trip id="18_bus_N68:0" type="pt_bus" depart="321" departLane="best" from="204721579#2" to="-45875465#0">
        <stop busStop="1383533462" duration="30"/>
        <stop busStop="1862990707" duration="30"/>
        <stop busStop="-1906421953" duration="30"/>
    </trip>
    <trip id="19_bus_N68:1" type="pt_bus" depart="326" departLane="best" from="152839426" to="318210360#0">
        <stop busStop="1383533597" duration="30"/>
        <stop busStop="3812676495" duration="30"/>
        <stop busStop="1383533461" duration="30"/>
    </trip>
    <trip id="20_bus_260:1" type="pt_bus" depart="353" departLane="best" from="314415495#1" to="458921214">
        <stop busStop="945142241" duration="30"/>
        <stop busStop="664208807" duration="30"/>
        <stop busStop="385200819" duration="30"/>
        <stop busStop="5315085711" duration="30"/>
    </trip>
    <trip id="21_light_rail_S8:0" type="pt_light_rail" depart="362" departLane="best" from="431786563" to="4782367">
        <stop busStop="30499135" duration="30"/>
        <stop busStop="30499115" duration="30"/>
    </trip>
    <trip id="22_light_rail_S8:1" type="pt_light_rail" depart="383" departLane="best" from="22917995" to="431786577">
        <stop busStop="3508654675" duration="30"/>
        <stop busStop="1095078213" duration="30"/>
    </trip>
    <trip id="23_bus_164:1" type="pt_bus" depart="389" departLane="best" from="143308542#1" to="23913524#5">
        <stop busStop="464396487" duration="30"/>
        <stop busStop="306982602" duration="30"/>
        <stop busStop="464396589" duration="30"/>
        <stop busStop="5315085711" duration="30"/>
        <stop busStop="1383533459" duration="30"/>
        <stop busStop="-1383533578" duration="30"/>
        <stop busStop="1383533492" duration="30"/>
    </trip>
    <trip id="24_light_rail_S9:0" type="pt_light_rail" depart="406" departLane="best" from="22917995" to="431786577">
        <stop busStop="3508654675" duration="30"/>
        <stop busStop="1095078213" duration="30"/>
    </trip>
    <trip id="25_light_rail_S9:1" type="pt_light_rail" depart="418" departLane="best" from="431786563" to="4782367">
        <stop busStop="30499135" duration="30"/>
        <stop busStop="30499115" duration="30"/>
    </trip>
    <trip id="26_light_rail_S46:0" type="pt_light_rail" depart="437" departLane="best" from="22917995" to="431786577">
        <stop busStop="3508654675" duration="30"/>
        <stop busStop="1095078213" duration="30"/>
    </trip>
    <trip id="27_light_rail_S46:1" type="pt_light_rail" depart="441" departLane="best" from="431786563" to="4782367">
        <stop busStop="30499135" duration="30"/>
        <stop busStop="30499115" duration="30"/>
    </trip>
    <trip id="28_light_rail_S85:0" type="pt_light_rail" depart="483" departLane="best" from="22917995" to="431786577">
        <stop busStop="3508654675" duration="30"/>
        <stop busStop="1095078213" duration="30"/>
    </trip>
    <trip id="29_light_rail_S85:1" type="pt_light_rail" depart="484" departLane="best" from="431786563" to="4782367">
        <stop busStop="30499135" duration="30"/>
        <stop busStop="30499115" duration="30"/>
    </trip>
    <trip id="30_bus_163:3" type="pt_bus" depart="485" departLane="best" from="204721579#2" to="231626692#1">
        <stop busStop="1383533462" duration="30"/>
        <stop busStop="1862990707" duration="30"/>
        <stop busStop="1656195133" duration="30"/>
        <stop busStop="945142098" duration="30"/>
        <stop busStop="2050022029" duration="30"/>
    </trip>
    <trip id="31_bus_160:1" type="pt_bus" depart="508" departLane="best" from="143308532#2" to="143308532#5">
        <stop busStop="671564316" duration="30"/>
        <stop busStop="837696418" duration="30"/>
    </trip>
    <trip id="32_bus_N60:2" type="pt_bus" depart="535" departLane="best" from="143308542#1" to="-45875465#0">
        <stop busStop="464396487" duration="30"/>
        <stop busStop="306982602" duration="30"/>
        <stop busStop="464396589" duration="30"/>
        <stop busStop="5315085711" duration="30"/>
        <stop busStop="-1906421953" duration="30"/>
    </trip>
    <trip id="33_bus_162:2" type="pt_bus" depart="574" departLane="best" from="-23913524#5" to="143308587#1">
        <stop busStop="-1383533494" duration="30"/>
        <stop busStop="1383533577" duration="30"/>
        <stop busStop="1383533575" duration="30"/>
        <stop busStop="1656195133" duration="30"/>
        <stop busStop="464396566" duration="30"/>
        <stop busStop="301331956" duration="30"/>
        <stop busStop="1560223236" duration="30"/>
    </trip>
    <trip id="34_bus_162:3" type="pt_bus" depart="583" departLane="best" from="143308542#1" to="23913524#5">
        <stop busStop="464396487" duration="30"/>
        <stop busStop="306982602" duration="30"/>
        <stop busStop="464396589" duration="30"/>
        <stop busStop="5315085711" duration="30"/>
        <stop busStop="1383533459" duration="30"/>
        <stop busStop="-1383533578" duration="30"/>
        <stop busStop="1383533492" duration="30"/>
    </trip>
</routes>
