<?xml version="1.0" encoding="UTF-8"?>
<!-- generated on 2021-09-07 15:10:28.888367 by $Id: ptlines2flows.py v1_3_1+0313-ccb31df3eb jakob.erdmann@dlr.de 2019-09-02 13:26:32 +0200 $ v1_10_0+0551-f581c04ba63
  options: -n osm.net.xml -e 1800 -p 600 <doubleminus>random-begin <doubleminus>seed 42 <doubleminus>ptstops osm_stops.add.xml <doubleminus>ptlines osm_ptlines.xml -o osm_pt.rou.xml <doubleminus>ignore-errors <doubleminus>vtype-prefix pt_ <doubleminus>stopinfos-file stopinfos.xml <doubleminus>routes-file vehroutes.xml <doubleminus>trips-file trips.trips.xml <doubleminus>min-stops 0 <doubleminus>extend-to-fringe <doubleminus>verbose
-->
<routes xmlns:xsi="http://www.w3.org/2001/XMLSchema-instance" xsi:noNamespaceSchemaLocation="http://sumo.dlr.de/xsd/routes_file.xsd">
    <vType id="pt_bus" vClass="bus"/>
    <vType id="pt_tram" vClass="tram"/>
    <vType id="pt_train" vClass="rail"/>
    <vType id="pt_subway" vClass="rail_urban"/>
    <vType id="pt_light_rail" vClass="rail_urban"/>
    <vType id="pt_monorail" vClass="rail"/>
    <vType id="pt_trolleybus" vClass="bus"/>
    <vType id="pt_aerialway" vClass="bus"/>
    <vType id="pt_ferry" vClass="ship"/>
    <trip id="0_bus_160:0" type="pt_bus" depart="3" departLane="best" from="141968799" to="46150481#1">
        <stop busStop="837697182" duration="30"/>
        <stop busStop="837696912" duration="30"/>
        <stop busStop="837696524" duration="30"/>
        <stop busStop="1560223236" duration="30"/>
        <stop busStop="852932398" duration="30"/>
    </trip>
    <trip id="3_bus_172:0" type="pt_bus" depart="17" departLane="best" from="145586617#0" to="145586617#6">
        <stop busStop="664609197" duration="30"/>
        <stop busStop="664609199" duration="30"/>
        <stop busStop="664609203" duration="30"/>
        <stop busStop="664609166" duration="30"/>
        <stop busStop="664609173" duration="30"/>
    </trip>
    <trip id="4_bus_172:1" type="pt_bus" depart="52" departLane="best" from="145586617#0" to="145586617#6">
        <stop busStop="664609175" duration="30"/>
        <stop busStop="664609167" duration="30"/>
        <stop busStop="664609202" duration="30"/>
        <stop busStop="664609200" duration="30"/>
        <stop busStop="664609198" duration="30"/>
    </trip>
    <trip id="5_bus_162:0" type="pt_bus" depart="55" departLane="best" from="206889086#1" to="46150481#1">
        <stop busStop="1656195133" duration="30"/>
        <stop busStop="464396566" duration="30"/>
        <stop busStop="301331956" duration="30"/>
        <stop busStop="1560223236" duration="30"/>
        <stop busStop="852932398" duration="30"/>
    </trip>
    <trip id="6_bus_162:1" type="pt_bus" depart="58" departLane="best" from="-46150481#1" to="806903753">
        <stop busStop="-851572693" duration="30"/>
        <stop busStop="464396487" duration="30"/>
        <stop busStop="306982602" duration="30"/>
        <stop busStop="464396589" duration="30"/>
        <stop busStop="5315085711" duration="30"/>
    </trip>
    <trip id="7_bus_163:0" type="pt_bus" depart="93" departLane="best" from="144909690" to="206889086#1">
        <stop busStop="301263813" duration="30"/>
        <stop busStop="94487938" duration="30"/>
        <stop busStop="1383533462" duration="30"/>
        <stop busStop="1862990707" duration="30"/>
        <stop busStop="1656195133" duration="30"/>
    </trip>
    <trip id="8_bus_163:1" type="pt_bus" depart="119" departLane="best" from="806903753" to="-144909690">
        <stop busStop="5315085711" duration="30"/>
        <stop busStop="3812676495" duration="30"/>
        <stop busStop="1383533461" duration="30"/>
        <stop busStop="-942861696" duration="30"/>
        <stop busStop="-94487924" duration="30"/>
    </trip>
    <trip id="9_bus_163:2" type="pt_bus" depart="131" departLane="best" from="70130339#0" to="-144909690">
        <stop busStop="2050022025" duration="30"/>
        <stop busStop="-945142208" duration="30"/>
        <stop busStop="5315085711" duration="30"/>
        <stop busStop="3812676495" duration="30"/>
        <stop busStop="1383533461" duration="30"/>
        <stop busStop="-942861696" duration="30"/>
        <stop busStop="-94487924" duration="30"/>
    </trip>
    <trip id="11_bus_260:0" type="pt_bus" depart="133" departLane="best" from="206889086#1" to="-144909690">
        <stop busStop="1656195133" duration="30"/>
        <stop busStop="-385200818" duration="30"/>
        <stop busStop="-1560223790" duration="30"/>
        <stop busStop="-1560223555" duration="30"/>
        <stop busStop="-942861696" duration="30"/>
        <stop busStop="-94487924" duration="30"/>
    </trip>
    <trip id="12_bus_164:0" type="pt_bus" depart="165" departLane="best" from="-23913524#4" to="46150481#1">
        <stop busStop="-1383533494" duration="30"/>
        <stop busStop="1383533577" duration="30"/>
        <stop busStop="1383533575" duration="30"/>
        <stop busStop="1656195133" duration="30"/>
        <stop busStop="464396566" duration="30"/>
        <stop busStop="301331956" duration="30"/>
        <stop busStop="1560223236" duration="30"/>
        <stop busStop="852932398" duration="30"/>
    </trip>
    <trip id="13_tram_61:0" type="pt_tram" depart="201" departLane="best" from="385981675#1" to="-178028204#3">
        <stop busStop="1704693343" duration="30"/>
        <stop busStop="1704693389" duration="30"/>
        <stop busStop="1704693457" duration="30"/>
        <stop busStop="583899039" duration="30"/>
        <stop busStop="-3892451598" duration="30"/>
    </trip>
    <trip id="14_tram_61:1" type="pt_tram" depart="204" departLane="best" from="179699939#0" to="220198810#9">
        <stop busStop="1704693444" duration="30"/>
        <stop busStop="1704693451" duration="30"/>
        <stop busStop="1704693381" duration="30"/>
        <stop busStop="1704693369" duration="30"/>
    </trip>
    <trip id="15_tram_63:0" type="pt_tram" depart="227" departLane="best" from="385981675#1" to="-178028204#3">
        <stop busStop="1704693343" duration="30"/>
        <stop busStop="1704693389" duration="30"/>
        <stop busStop="1704693457" duration="30"/>
        <stop busStop="583899039" duration="30"/>
        <stop busStop="-3892451598" duration="30"/>
    </trip>
    <trip id="16_tram_63:1" type="pt_tram" depart="253" departLane="best" from="179699939#0" to="220198810#9">
        <stop busStop="1704693444" duration="30"/>
        <stop busStop="1704693451" duration="30"/>
        <stop busStop="1704693381" duration="30"/>
        <stop busStop="1704693369" duration="30"/>
    </trip>
    <trip id="17_train_S45:0" type="pt_train" depart="303" departLane="best" from="22917994" to="22917994">
        <stop busStop="3508654675" duration="30"/>
    </trip>
    <trip id="18_train_S45:1" type="pt_train" depart="321" departLane="best" from="431786563" to="846012128">
        <stop busStop="30499115" duration="30"/>
    </trip>
    <trip id="21_bus_260:1" type="pt_bus" depart="353" departLane="best" from="144909690" to="806903753">
        <stop busStop="301263813" duration="30"/>
        <stop busStop="94487938" duration="30"/>
        <stop busStop="945142241" duration="30"/>
        <stop busStop="664208807" duration="30"/>
        <stop busStop="385200819" duration="30"/>
        <stop busStop="5315085711" duration="30"/>
    </trip>
    <trip id="22_train_S8:0" type="pt_train" depart="362" departLane="best" from="431786563" to="846012128">
        <stop busStop="30499115" duration="30"/>
    </trip>
    <trip id="23_train_S8:1" type="pt_train" depart="383" departLane="best" from="22917994" to="22917994">
        <stop busStop="3508654675" duration="30"/>
    </trip>
    <trip id="24_bus_164:1" type="pt_bus" depart="389" departLane="best" from="-46150481#1" to="23913524#4">
        <stop busStop="-851572693" duration="30"/>
        <stop busStop="464396487" duration="30"/>
        <stop busStop="306982602" duration="30"/>
        <stop busStop="464396589" duration="30"/>
        <stop busStop="5315085711" duration="30"/>
        <stop busStop="1383533459" duration="30"/>
        <stop busStop="-1383533578" duration="30"/>
        <stop busStop="1383533492" duration="30"/>
    </trip>
    <trip id="25_train_S9:0" type="pt_train" depart="406" departLane="best" from="22917994" to="22917994">
        <stop busStop="3508654675" duration="30"/>
    </trip>
    <trip id="26_train_S9:1" type="pt_train" depart="418" departLane="best" from="431786563" to="846012128">
        <stop busStop="30499115" duration="30"/>
    </trip>
    <trip id="27_train_S46:0" type="pt_train" depart="437" departLane="best" from="22917994" to="22917994">
        <stop busStop="3508654675" duration="30"/>
    </trip>
    <trip id="28_train_S46:1" type="pt_train" depart="441" departLane="best" from="431786563" to="846012128">
        <stop busStop="30499115" duration="30"/>
    </trip>
    <trip id="29_train_S85:0" type="pt_train" depart="483" departLane="best" from="22917994" to="22917994">
        <stop busStop="3508654675" duration="30"/>
    </trip>
    <trip id="30_train_S85:1" type="pt_train" depart="484" departLane="best" from="431786563" to="846012128">
        <stop busStop="30499115" duration="30"/>
    </trip>
    <trip id="31_bus_163:3" type="pt_bus" depart="485" departLane="best" from="144909690" to="231626692#1">
        <stop busStop="301263813" duration="30"/>
        <stop busStop="94487938" duration="30"/>
        <stop busStop="1383533462" duration="30"/>
        <stop busStop="1862990707" duration="30"/>
        <stop busStop="1656195133" duration="30"/>
        <stop busStop="945142098" duration="30"/>
        <stop busStop="2050022029" duration="30"/>
    </trip>
    <trip id="32_bus_160:1" type="pt_bus" depart="508" departLane="best" from="81096611#0" to="-141968830#0">
        <stop busStop="1568240825" duration="30"/>
        <stop busStop="851572829" duration="30"/>
        <stop busStop="301292770" duration="30"/>
        <stop busStop="671564316" duration="30"/>
        <stop busStop="837696418" duration="30"/>
        <stop busStop="-1553912606" duration="30"/>
        <stop busStop="-1094134880" duration="30"/>
    </trip>
    <trip id="34_bus_162:2" type="pt_bus" depart="574" departLane="best" from="-23913524#4" to="46150481#1">
        <stop busStop="-1383533494" duration="30"/>
        <stop busStop="1383533577" duration="30"/>
        <stop busStop="1383533575" duration="30"/>
        <stop busStop="1656195133" duration="30"/>
        <stop busStop="464396566" duration="30"/>
        <stop busStop="301331956" duration="30"/>
        <stop busStop="1560223236" duration="30"/>
        <stop busStop="852932398" duration="30"/>
    </trip>
    <trip id="35_bus_162:3" type="pt_bus" depart="583" departLane="best" from="-46150481#1" to="23913524#4">
        <stop busStop="-851572693" duration="30"/>
        <stop busStop="464396487" duration="30"/>
        <stop busStop="306982602" duration="30"/>
        <stop busStop="464396589" duration="30"/>
        <stop busStop="5315085711" duration="30"/>
        <stop busStop="1383533459" duration="30"/>
        <stop busStop="-1383533578" duration="30"/>
        <stop busStop="1383533492" duration="30"/>
    </trip>
</routes>
