<?xml version="1.0" encoding="UTF-8"?>

<!-- generated on 05/10/19 09:33:04 by Eclipse SUMO duarouter Version v1_2_0+0280-89bb845180c
<configuration xmlns:xsi="http://www.w3.org/2001/XMLSchema-instance" xsi:noNamespaceSchemaLocation="http://sumo.dlr.de/xsd/duarouterConfiguration.xsd">

    <input>
        <net-file value="osm.net.xml"/>
        <additional-files value="osm_stops.add.xml,osm_pt.rou.xml"/>
        <route-files value="osm.pedestrian.valid.trips.xml"/>
    </input>

    <output>
        <output-file value="osm.pedestrian.valid.trips.xml.tmp"/>
        <write-trips value="true"/>
    </output>

    <time>
        <begin value="0"/>
        <end value="3600.0"/>
    </time>

    <report>
        <no-warnings value="true"/>
        <ignore-errors value="true"/>
        <no-step-log value="true"/>
    </report>

</configuration>
-->

<routes xmlns:xsi="http://www.w3.org/2001/XMLSchema-instance" xsi:noNamespaceSchemaLocation="http://sumo.dlr.de/xsd/routes_file.xsd">
    <vType id="ped_pedestrian" vClass="pedestrian"/>
    <person id="ped0" type="ped_pedestrian" depart="0.00">
        <personTrip from="26991766#0" to="-142575656#0" modes="public" walkFactor="0.75"/>
    </person>
    <person id="ped1" type="ped_pedestrian" depart="1.00">
        <personTrip from="-53529286#0" to="-320153863#4" modes="public" walkFactor="0.75"/>
    </person>
    <person id="ped2" type="ped_pedestrian" depart="2.00">
        <personTrip from="40191607#1" to="318210373#0" modes="public" walkFactor="0.75"/>
    </person>
    <person id="ped3" type="ped_pedestrian" depart="3.00">
        <personTrip from="579026240#2" to="-143308600#1" modes="public" walkFactor="0.75"/>
    </person>
    <person id="ped4" type="ped_pedestrian" depart="4.00">
        <personTrip from="142575704#8" to="-142575656#8" modes="public" walkFactor="0.75"/>
    </person>
    <person id="ped5" type="ped_pedestrian" depart="5.00">
        <personTrip from="-318210373#1" to="147859765#1" modes="public" walkFactor="0.75"/>
    </person>
    <person id="ped6" type="ped_pedestrian" depart="6.00">
        <personTrip from="-142575656#12" to="-302943908#1" modes="public" walkFactor="0.75"/>
    </person>
    <person id="ped7" type="ped_pedestrian" depart="7.00">
        <personTrip from="31050360#2" to="187122892#12" modes="public" walkFactor="0.75"/>
    </person>
    <person id="ped8" type="ped_pedestrian" depart="8.00">
        <personTrip from="-318210378#0" to="24214694#3" modes="public" walkFactor="0.75"/>
    </person>
    <person id="ped9" type="ped_pedestrian" depart="9.00">
        <personTrip from="540388567#0" to="-114692703#0" modes="public" walkFactor="0.75"/>
    </person>
    <person id="ped10" type="ped_pedestrian" depart="10.00">
        <personTrip from="540221746" to="329733354#1" modes="public" walkFactor="0.75"/>
    </person>
    <person id="ped11" type="ped_pedestrian" depart="11.00">
        <personTrip from="116343628#1" to="-24152582#1" modes="public" walkFactor="0.75"/>
    </person>
    <person id="ped12" type="ped_pedestrian" depart="12.00">
        <personTrip from="579691100#1" to="116024215" modes="public" walkFactor="0.75"/>
    </person>
    <person id="ped13" type="ped_pedestrian" depart="13.00">
        <personTrip from="-143308685#0" to="-143482761" modes="public" walkFactor="0.75"/>
    </person>
    <person id="ped14" type="ped_pedestrian" depart="14.00">
        <personTrip from="579026163#2" to="257072321#8" modes="public" walkFactor="0.75"/>
    </person>
    <person id="ped15" type="ped_pedestrian" depart="15.00">
        <personTrip from="540223979" to="398770009#0" modes="public" walkFactor="0.75"/>
    </person>
    <person id="ped16" type="ped_pedestrian" depart="16.00">
        <personTrip from="175357591#0" to="70255226#1" modes="public" walkFactor="0.75"/>
    </person>
    <person id="ped17" type="ped_pedestrian" depart="17.00">
        <personTrip from="142575656#11" to="192204854#0" modes="public" walkFactor="0.75"/>
    </person>
    <person id="ped18" type="ped_pedestrian" depart="18.00">
        <personTrip from="578659323" to="26004861#2" modes="public" walkFactor="0.75"/>
    </person>
    <person id="ped19" type="ped_pedestrian" depart="19.00">
        <personTrip from="579026198#0" to="24152572#3" modes="public" walkFactor="0.75"/>
    </person>
    <person id="ped21" type="ped_pedestrian" depart="21.00">
        <personTrip from="-320741896" to="-579026241" modes="public" walkFactor="0.75"/>
    </person>
    <person id="ped22" type="ped_pedestrian" depart="22.00">
        <personTrip from="-143308523#2" to="-334308447#0" modes="public" walkFactor="0.75"/>
    </person>
    <person id="ped23" type="ped_pedestrian" depart="23.00">
        <personTrip from="-143482779#1" to="-53529457#0" modes="public" walkFactor="0.75"/>
    </person>
    <person id="ped24" type="ped_pedestrian" depart="24.00">
        <personTrip from="26842943" to="134100873" modes="public" walkFactor="0.75"/>
    </person>
    <person id="ped25" type="ped_pedestrian" depart="25.00">
        <personTrip from="140162596" to="-314415495#11" modes="public" walkFactor="0.75"/>
    </person>
    <person id="ped26" type="ped_pedestrian" depart="26.00">
        <personTrip from="-52081075#6" to="579671827#1" modes="public" walkFactor="0.75"/>
    </person>
    <person id="ped27" type="ped_pedestrian" depart="27.00">
        <personTrip from="302944175#1" to="259433182#4" modes="public" walkFactor="0.75"/>
    </person>
    <person id="ped28" type="ped_pedestrian" depart="28.00">
        <personTrip from="-257005614#1" to="397678504#1" modes="public" walkFactor="0.75"/>
    </person>
    <person id="ped29" type="ped_pedestrian" depart="29.00">
        <personTrip from="-24152656#1" to="142575656#15" modes="public" walkFactor="0.75"/>
    </person>
    <person id="ped30" type="ped_pedestrian" depart="30.00">
        <personTrip from="81096614" to="26991766#1" modes="public" walkFactor="0.75"/>
    </person>
    <person id="ped31" type="ped_pedestrian" depart="31.00">
        <personTrip from="207086005" to="320153866" modes="public" walkFactor="0.75"/>
    </person>
    <person id="ped32" type="ped_pedestrian" depart="32.00">
        <personTrip from="579026155" to="52081075#6" modes="public" walkFactor="0.75"/>
    </person>
    <person id="ped33" type="ped_pedestrian" depart="33.00">
        <personTrip from="-320741898#1" to="-142575657#4" modes="public" walkFactor="0.75"/>
    </person>
    <person id="ped34" type="ped_pedestrian" depart="34.00">
        <personTrip from="114025356#1" to="-52081075#8" modes="public" walkFactor="0.75"/>
    </person>
    <person id="ped35" type="ped_pedestrian" depart="35.00">
        <personTrip from="-314415495#15" to="579671855#1" modes="public" walkFactor="0.75"/>
    </person>
    <person id="ped36" type="ped_pedestrian" depart="36.00">
        <personTrip from="579026211#9" to="114024961#1" modes="public" walkFactor="0.75"/>
    </person>
    <person id="ped37" type="ped_pedestrian" depart="37.00">
        <personTrip from="312192825" to="142575686#0" modes="public" walkFactor="0.75"/>
    </person>
    <person id="ped38" type="ped_pedestrian" depart="38.00">
        <personTrip from="579269943#3" to="143308542#15" modes="public" walkFactor="0.75"/>
    </person>
    <person id="ped39" type="ped_pedestrian" depart="39.00">
        <personTrip from="-503159211" to="-38915290" modes="public" walkFactor="0.75"/>
    </person>
    <person id="ped40" type="ped_pedestrian" depart="40.00">
        <personTrip from="230625606#2" to="-461093307" modes="public" walkFactor="0.75"/>
    </person>
    <person id="ped41" type="ped_pedestrian" depart="41.00">
        <personTrip from="24152597#5" to="579269898#0" modes="public" walkFactor="0.75"/>
    </person>
    <person id="ped42" type="ped_pedestrian" depart="42.00">
        <personTrip from="142575688#13" to="-318210376" modes="public" walkFactor="0.75"/>
    </person>
    <person id="ped43" type="ped_pedestrian" depart="43.00">
        <personTrip from="92914055#0" to="149611514#3" modes="public" walkFactor="0.75"/>
    </person>
    <person id="ped44" type="ped_pedestrian" depart="44.00">
        <personTrip from="-143308673#0" to="-142575691#0" modes="public" walkFactor="0.75"/>
    </person>
    <person id="ped45" type="ped_pedestrian" depart="45.00">
        <personTrip from="-149611511#2" to="26444469#2" modes="public" walkFactor="0.75"/>
    </person>
    <person id="ped46" type="ped_pedestrian" depart="46.00">
        <personTrip from="53529255#1" to="142575704#8" modes="public" walkFactor="0.75"/>
    </person>
    <person id="ped47" type="ped_pedestrian" depart="47.00">
        <personTrip from="-142575721#0" to="142575656#7" modes="public" walkFactor="0.75"/>
    </person>
    <person id="ped48" type="ped_pedestrian" depart="48.00">
        <personTrip from="87849665#0" to="174657426" modes="public" walkFactor="0.75"/>
    </person>
    <person id="ped49" type="ped_pedestrian" depart="49.00">
        <personTrip from="70214888#1" to="579026197#0" modes="public" walkFactor="0.75"/>
    </person>
    <person id="ped50" type="ped_pedestrian" depart="50.00">
        <personTrip from="-122666828#2" to="397678489" modes="public" walkFactor="0.75"/>
    </person>
    <person id="ped51" type="ped_pedestrian" depart="51.00">
        <personTrip from="318210389#0" to="175357593#0" modes="public" walkFactor="0.75"/>
    </person>
    <person id="ped52" type="ped_pedestrian" depart="52.00">
        <personTrip from="-52081075#4" to="26991766#5" modes="public" walkFactor="0.75"/>
    </person>
    <person id="ped53" type="ped_pedestrian" depart="53.00">
        <personTrip from="-149611514#6" to="142575737#2" modes="public" walkFactor="0.75"/>
    </person>
    <person id="ped54" type="ped_pedestrian" depart="54.00">
        <personTrip from="143308527#6" to="579691076#3" modes="public" walkFactor="0.75"/>
    </person>
    <person id="ped55" type="ped_pedestrian" depart="55.00">
        <personTrip from="579026211#7" to="-47770431#1" modes="public" walkFactor="0.75"/>
    </person>
    <person id="ped56" type="ped_pedestrian" depart="56.00">
        <personTrip from="146511461#5" to="-26444467#4" modes="public" walkFactor="0.75"/>
    </person>
    <person id="ped57" type="ped_pedestrian" depart="57.00">
        <personTrip from="579269941#0" to="579026211#0" modes="public" walkFactor="0.75"/>
    </person>
    <person id="ped58" type="ped_pedestrian" depart="58.00">
        <personTrip from="-581596946" to="26991690" modes="public" walkFactor="0.75"/>
    </person>
    <person id="ped59" type="ped_pedestrian" depart="59.00">
        <personTrip from="259433182#3" to="-24152572#1" modes="public" walkFactor="0.75"/>
    </person>
    <person id="ped60" type="ped_pedestrian" depart="60.00">
        <personTrip from="46039050#5" to="180789857#1" modes="public" walkFactor="0.75"/>
    </person>
    <person id="ped61" type="ped_pedestrian" depart="61.00">
        <personTrip from="52081116#2" to="174657433#0" modes="public" walkFactor="0.75"/>
    </person>
    <person id="ped62" type="ped_pedestrian" depart="62.00">
        <personTrip from="-114024901" to="114285344#0" modes="public" walkFactor="0.75"/>
    </person>
    <person id="ped63" type="ped_pedestrian" depart="63.00">
        <personTrip from="-137534616#1" to="579671786#2" modes="public" walkFactor="0.75"/>
    </person>
    <person id="ped65" type="ped_pedestrian" depart="65.00">
        <personTrip from="-81639678#0" to="-142575704#4" modes="public" walkFactor="0.75"/>
    </person>
    <person id="ped66" type="ped_pedestrian" depart="66.00">
        <personTrip from="579026213#1" to="579671869#2" modes="public" walkFactor="0.75"/>
    </person>
    <person id="ped67" type="ped_pedestrian" depart="67.00">
        <personTrip from="-143308562#1" to="143308673#0" modes="public" walkFactor="0.75"/>
    </person>
    <person id="ped68" type="ped_pedestrian" depart="68.00">
        <personTrip from="-142575737#2" to="45875465#0" modes="public" walkFactor="0.75"/>
    </person>
    <person id="ped69" type="ped_pedestrian" depart="69.00">
        <personTrip from="47770431#1" to="-175357040#1" modes="public" walkFactor="0.75"/>
    </person>
    <person id="ped70" type="ped_pedestrian" depart="70.00">
        <personTrip from="143308562#1" to="190083608#3" modes="public" walkFactor="0.75"/>
    </person>
    <person id="ped71" type="ped_pedestrian" depart="71.00">
        <personTrip from="-520414189" to="579026211#13" modes="public" walkFactor="0.75"/>
    </person>
    <person id="ped72" type="ped_pedestrian" depart="72.00">
        <personTrip from="142575708#1" to="-314415495#18" modes="public" walkFactor="0.75"/>
    </person>
    <person id="ped73" type="ped_pedestrian" depart="73.00">
        <personTrip from="180789857#1" to="398770009#0" modes="public" walkFactor="0.75"/>
    </person>
    <person id="ped74" type="ped_pedestrian" depart="74.00">
        <personTrip from="-302944175#0" to="114024903#4" modes="public" walkFactor="0.75"/>
    </person>
    <person id="ped75" type="ped_pedestrian" depart="75.00">
        <personTrip from="87843218#1" to="31050360#2" modes="public" walkFactor="0.75"/>
    </person>
    <person id="ped76" type="ped_pedestrian" depart="76.00">
        <personTrip from="142598712" to="149670384#1" modes="public" walkFactor="0.75"/>
    </person>
    <person id="ped77" type="ped_pedestrian" depart="77.00">
        <personTrip from="-156071615#3" to="-320153866" modes="public" walkFactor="0.75"/>
    </person>
    <person id="ped78" type="ped_pedestrian" depart="78.00">
        <personTrip from="116342223#1" to="24152660#2" modes="public" walkFactor="0.75"/>
    </person>
    <person id="ped79" type="ped_pedestrian" depart="79.00">
        <personTrip from="-326994261#1" to="-318210378#0" modes="public" walkFactor="0.75"/>
    </person>
    <person id="ped80" type="ped_pedestrian" depart="80.00">
        <personTrip from="-142598710#1" to="26816413#1" modes="public" walkFactor="0.75"/>
    </person>
    <person id="ped81" type="ped_pedestrian" depart="81.00">
        <personTrip from="-320741898#0" to="579269912#0" modes="public" walkFactor="0.75"/>
    </person>
    <person id="ped82" type="ped_pedestrian" depart="82.00">
        <personTrip from="579026193" to="-142598710#1" modes="public" walkFactor="0.75"/>
    </person>
    <person id="ped83" type="ped_pedestrian" depart="83.00">
        <personTrip from="-354084467#0" to="314415495#3" modes="public" walkFactor="0.75"/>
    </person>
    <person id="ped84" type="ped_pedestrian" depart="84.00">
        <personTrip from="-314415495#7" to="-175357597#2" modes="public" walkFactor="0.75"/>
    </person>
    <person id="ped85" type="ped_pedestrian" depart="85.00">
        <personTrip from="579671816" to="23925124#0" modes="public" walkFactor="0.75"/>
    </person>
    <person id="ped86" type="ped_pedestrian" depart="86.00">
        <personTrip from="143308549#2" to="527170115#3" modes="public" walkFactor="0.75"/>
    </person>
    <person id="ped87" type="ped_pedestrian" depart="87.00">
        <personTrip from="540223981#0" to="-26843019#1" modes="public" walkFactor="0.75"/>
    </person>
    <person id="ped88" type="ped_pedestrian" depart="88.00">
        <personTrip from="-143482765#0" to="142575728" modes="public" walkFactor="0.75"/>
    </person>
    <person id="ped89" type="ped_pedestrian" depart="89.00">
        <personTrip from="142575708#4" to="143308546#2" modes="public" walkFactor="0.75"/>
    </person>
    <person id="ped90" type="ped_pedestrian" depart="90.00">
        <personTrip from="397678504#1" to="318210360#0" modes="public" walkFactor="0.75"/>
    </person>
    <person id="ped91" type="ped_pedestrian" depart="91.00">
        <personTrip from="81096582#2" to="-143482766#2" modes="public" walkFactor="0.75"/>
    </person>
    <person id="ped92" type="ped_pedestrian" depart="92.00">
        <personTrip from="142575688#9" to="116342915" modes="public" walkFactor="0.75"/>
    </person>
    <person id="ped93" type="ped_pedestrian" depart="93.00">
        <personTrip from="579026198#0" to="-40089662#1" modes="public" walkFactor="0.75"/>
    </person>
    <person id="ped94" type="ped_pedestrian" depart="94.00">
        <personTrip from="-26843019#0" to="143308523#0" modes="public" walkFactor="0.75"/>
    </person>
    <person id="ped95" type="ped_pedestrian" depart="95.00">
        <personTrip from="142575704#7" to="-53529457#1" modes="public" walkFactor="0.75"/>
    </person>
    <person id="ped96" type="ped_pedestrian" depart="96.00">
        <personTrip from="-40089662#7" to="579671770#3" modes="public" walkFactor="0.75"/>
    </person>
    <person id="ped97" type="ped_pedestrian" depart="97.00">
        <personTrip from="143308497#0" to="579026197#1" modes="public" walkFactor="0.75"/>
    </person>
    <person id="ped98" type="ped_pedestrian" depart="98.00">
        <personTrip from="190083616#0" to="-142575695#0" modes="public" walkFactor="0.75"/>
    </person>
    <person id="ped99" type="ped_pedestrian" depart="99.00">
        <personTrip from="92914055#5" to="578659350#1" modes="public" walkFactor="0.75"/>
    </person>
    <person id="ped100" type="ped_pedestrian" depart="100.00">
        <personTrip from="70133621#0" to="579671777" modes="public" walkFactor="0.75"/>
    </person>
    <person id="ped101" type="ped_pedestrian" depart="101.00">
        <personTrip from="579026164#1" to="-24214694#5" modes="public" walkFactor="0.75"/>
    </person>
    <person id="ped102" type="ped_pedestrian" depart="102.00">
        <personTrip from="143308669" to="-314415495#6" modes="public" walkFactor="0.75"/>
    </person>
    <person id="ped103" type="ped_pedestrian" depart="103.00">
        <personTrip from="142575688#5" to="-142575704#7" modes="public" walkFactor="0.75"/>
    </person>
    <person id="ped104" type="ped_pedestrian" depart="104.00">
        <personTrip from="142575656#12" to="81096589#1" modes="public" walkFactor="0.75"/>
    </person>
    <person id="ped105" type="ped_pedestrian" depart="105.00">
        <personTrip from="-520414189" to="527170115#1" modes="public" walkFactor="0.75"/>
    </person>
    <person id="ped106" type="ped_pedestrian" depart="106.00">
        <personTrip from="143308532#2" to="142575707" modes="public" walkFactor="0.75"/>
    </person>
    <person id="ped107" type="ped_pedestrian" depart="107.00">
        <personTrip from="579691100#1" to="87843235#0" modes="public" walkFactor="0.75"/>
    </person>
    <person id="ped108" type="ped_pedestrian" depart="108.00">
        <personTrip from="20553068#1" to="38507369#0" modes="public" walkFactor="0.75"/>
    </person>
    <person id="ped109" type="ped_pedestrian" depart="109.00">
        <personTrip from="-24152572#6" to="-581596941" modes="public" walkFactor="0.75"/>
    </person>
    <person id="ped110" type="ped_pedestrian" depart="110.00">
        <personTrip from="70130339#3" to="24152582#0" modes="public" walkFactor="0.75"/>
    </person>
    <person id="ped111" type="ped_pedestrian" depart="111.00">
        <personTrip from="180800504#0" to="414563781" modes="public" walkFactor="0.75"/>
    </person>
    <person id="ped112" type="ped_pedestrian" depart="112.00">
        <personTrip from="-142575704#2" to="24152597#4" modes="public" walkFactor="0.75"/>
    </person>
    <person id="ped113" type="ped_pedestrian" depart="113.00">
        <personTrip from="147859763#3" to="579026172#1" modes="public" walkFactor="0.75"/>
    </person>
    <person id="ped114" type="ped_pedestrian" depart="114.00">
        <personTrip from="-24152593#5" to="581596938" modes="public" walkFactor="0.75"/>
    </person>
    <person id="ped115" type="ped_pedestrian" depart="115.00">
        <personTrip from="-143308523#3" to="-26816590#0" modes="public" walkFactor="0.75"/>
    </person>
    <person id="ped116" type="ped_pedestrian" depart="116.00">
        <personTrip from="24733698#1" to="318210366" modes="public" walkFactor="0.75"/>
    </person>
    <person id="ped118" type="ped_pedestrian" depart="118.00">
        <personTrip from="579026237#0" to="-38507369#3" modes="public" walkFactor="0.75"/>
    </person>
    <person id="ped119" type="ped_pedestrian" depart="119.00">
        <personTrip from="24733697#3" to="26004868#0" modes="public" walkFactor="0.75"/>
    </person>
    <person id="ped120" type="ped_pedestrian" depart="120.00">
        <personTrip from="142575704#13" to="24152597#2" modes="public" walkFactor="0.75"/>
    </person>
    <person id="ped121" type="ped_pedestrian" depart="121.00">
        <personTrip from="153021553#1" to="579671809#1" modes="public" walkFactor="0.75"/>
    </person>
    <person id="ped122" type="ped_pedestrian" depart="122.00">
        <personTrip from="-31100755#1" to="38159999#9" modes="public" walkFactor="0.75"/>
    </person>
    <person id="ped123" type="ped_pedestrian" depart="123.00">
        <personTrip from="-356766925#1" to="142575686#0" modes="public" walkFactor="0.75"/>
    </person>
    <person id="ped124" type="ped_pedestrian" depart="124.00">
        <personTrip from="318210351" to="-70130297" modes="public" walkFactor="0.75"/>
    </person>
    <person id="ped125" type="ped_pedestrian" depart="125.00">
        <personTrip from="114033011" to="415852813" modes="public" walkFactor="0.75"/>
    </person>
    <person id="ped126" type="ped_pedestrian" depart="126.00">
        <personTrip from="-143308493#0" to="143308542#14" modes="public" walkFactor="0.75"/>
    </person>
    <person id="ped127" type="ped_pedestrian" depart="127.00">
        <personTrip from="92914055#2" to="87849665#0" modes="public" walkFactor="0.75"/>
    </person>
    <person id="ped128" type="ped_pedestrian" depart="128.00">
        <personTrip from="-143308493#2" to="-314415495#4" modes="public" walkFactor="0.75"/>
    </person>
    <person id="ped129" type="ped_pedestrian" depart="129.00">
        <personTrip from="-520414189" to="579671806#7" modes="public" walkFactor="0.75"/>
    </person>
    <person id="ped130" type="ped_pedestrian" depart="130.00">
        <personTrip from="579026218" to="579026214" modes="public" walkFactor="0.75"/>
    </person>
    <person id="ped131" type="ped_pedestrian" depart="131.00">
        <personTrip from="140162595" to="-24152593#6" modes="public" walkFactor="0.75"/>
    </person>
    <person id="ped133" type="ped_pedestrian" depart="133.00">
        <personTrip from="25944590#2" to="81096604" modes="public" walkFactor="0.75"/>
    </person>
    <person id="ped134" type="ped_pedestrian" depart="134.00">
        <personTrip from="312192817" to="-115227681" modes="public" walkFactor="0.75"/>
    </person>
    <person id="ped135" type="ped_pedestrian" depart="135.00">
        <personTrip from="55652793#0" to="-581596948" modes="public" walkFactor="0.75"/>
    </person>
    <person id="ped136" type="ped_pedestrian" depart="136.00">
        <personTrip from="31344738#2" to="579671836#0" modes="public" walkFactor="0.75"/>
    </person>
    <person id="ped137" type="ped_pedestrian" depart="137.00">
        <personTrip from="-187122892#13" to="-149670370" modes="public" walkFactor="0.75"/>
    </person>
    <person id="ped138" type="ped_pedestrian" depart="138.00">
        <personTrip from="-147859765#0" to="204721579#3" modes="public" walkFactor="0.75"/>
    </person>
    <person id="ped139" type="ped_pedestrian" depart="139.00">
        <personTrip from="-53529255#1" to="257131020" modes="public" walkFactor="0.75"/>
    </person>
    <person id="ped140" type="ped_pedestrian" depart="140.00">
        <personTrip from="382647882" to="-31050360#2" modes="public" walkFactor="0.75"/>
    </person>
    <person id="ped141" type="ped_pedestrian" depart="141.00">
        <personTrip from="26816766#0" to="-503159209" modes="public" walkFactor="0.75"/>
    </person>
    <person id="ped142" type="ped_pedestrian" depart="142.00">
        <personTrip from="143308686" to="579269912#0" modes="public" walkFactor="0.75"/>
    </person>
    <person id="ped143" type="ped_pedestrian" depart="143.00">
        <personTrip from="579026161#4" to="-143308673#5" modes="public" walkFactor="0.75"/>
    </person>
    <person id="ped144" type="ped_pedestrian" depart="144.00">
        <personTrip from="142575708#4" to="-53529416#0" modes="public" walkFactor="0.75"/>
    </person>
    <person id="ped145" type="ped_pedestrian" depart="145.00">
        <personTrip from="-114024904" to="503159211" modes="public" walkFactor="0.75"/>
    </person>
    <person id="ped146" type="ped_pedestrian" depart="146.00">
        <personTrip from="26843019#3" to="-45875465#0" modes="public" walkFactor="0.75"/>
    </person>
    <person id="ped147" type="ped_pedestrian" depart="147.00">
        <personTrip from="40636828#1" to="190928926#0" modes="public" walkFactor="0.75"/>
    </person>
    <person id="ped148" type="ped_pedestrian" depart="148.00">
        <personTrip from="142575718#1" to="-116342915" modes="public" walkFactor="0.75"/>
    </person>
    <person id="ped149" type="ped_pedestrian" depart="149.00">
        <personTrip from="-143308505#1" to="579026222#0" modes="public" walkFactor="0.75"/>
    </person>
    <person id="ped150" type="ped_pedestrian" depart="150.00">
        <personTrip from="579269910#1" to="187122892#14" modes="public" walkFactor="0.75"/>
    </person>
    <person id="ped151" type="ped_pedestrian" depart="151.00">
        <personTrip from="578659339#1" to="24152593#8" modes="public" walkFactor="0.75"/>
    </person>
    <person id="ped152" type="ped_pedestrian" depart="152.00">
        <personTrip from="-23925119#1" to="-175355421" modes="public" walkFactor="0.75"/>
    </person>
    <person id="ped153" type="ped_pedestrian" depart="153.00">
        <personTrip from="10735918#0" to="579269898#3" modes="public" walkFactor="0.75"/>
    </person>
    <person id="ped154" type="ped_pedestrian" depart="154.00">
        <personTrip from="53529416#0" to="579026197#0" modes="public" walkFactor="0.75"/>
    </person>
    <person id="ped155" type="ped_pedestrian" depart="155.00">
        <personTrip from="579269898#2" to="-314415495#12" modes="public" walkFactor="0.75"/>
    </person>
    <person id="ped156" type="ped_pedestrian" depart="156.00">
        <personTrip from="-40089662#6" to="-146511461#6" modes="public" walkFactor="0.75"/>
    </person>
    <person id="ped157" type="ped_pedestrian" depart="157.00">
        <personTrip from="521731431" to="579026225#1" modes="public" walkFactor="0.75"/>
    </person>
    <person id="ped158" type="ped_pedestrian" depart="158.00">
        <personTrip from="142575691#1" to="26004966#1" modes="public" walkFactor="0.75"/>
    </person>
    <person id="ped159" type="ped_pedestrian" depart="159.00">
        <personTrip from="-24152572#5" to="579671786#4" modes="public" walkFactor="0.75"/>
    </person>
    <person id="ped160" type="ped_pedestrian" depart="160.00">
        <personTrip from="579026202#3" to="71028777#7" modes="public" walkFactor="0.75"/>
    </person>
    <person id="ped161" type="ped_pedestrian" depart="161.00">
        <personTrip from="540388571" to="579026219#1" modes="public" walkFactor="0.75"/>
    </person>
    <person id="ped162" type="ped_pedestrian" depart="162.00">
        <personTrip from="-142575655#9" to="40191607#1" modes="public" walkFactor="0.75"/>
    </person>
    <person id="ped163" type="ped_pedestrian" depart="163.00">
        <personTrip from="115092088#1" to="579671806#10" modes="public" walkFactor="0.75"/>
    </person>
    <person id="ped164" type="ped_pedestrian" depart="164.00">
        <personTrip from="53529600#2" to="579026202#1" modes="public" walkFactor="0.75"/>
    </person>
    <person id="ped165" type="ped_pedestrian" depart="165.00">
        <personTrip from="540388571" to="-52081075#4" modes="public" walkFactor="0.75"/>
    </person>
    <person id="ped166" type="ped_pedestrian" depart="166.00">
        <personTrip from="53021671" to="-147859765#3" modes="public" walkFactor="0.75"/>
    </person>
    <person id="ped167" type="ped_pedestrian" depart="167.00">
        <personTrip from="579026211#13" to="579026190" modes="public" walkFactor="0.75"/>
    </person>
    <person id="ped168" type="ped_pedestrian" depart="168.00">
        <personTrip from="-318210386#2" to="543699379#1" modes="public" walkFactor="0.75"/>
    </person>
    <person id="ped169" type="ped_pedestrian" depart="169.00">
        <personTrip from="143308542#4" to="-73058506#0" modes="public" walkFactor="0.75"/>
    </person>
    <person id="ped170" type="ped_pedestrian" depart="170.00">
        <personTrip from="53529411#0" to="-320741895#2" modes="public" walkFactor="0.75"/>
    </person>
    <person id="ped171" type="ped_pedestrian" depart="171.00">
        <personTrip from="-142575655#6" to="-26991766#1" modes="public" walkFactor="0.75"/>
    </person>
    <person id="ped172" type="ped_pedestrian" depart="172.00">
        <personTrip from="114355960#1" to="579026202#2" modes="public" walkFactor="0.75"/>
    </person>
    <person id="ped173" type="ped_pedestrian" depart="173.00">
        <personTrip from="70130303" to="-53529476#1" modes="public" walkFactor="0.75"/>
    </person>
    <person id="ped174" type="ped_pedestrian" depart="174.00">
        <personTrip from="26991766#6" to="142575688#13" modes="public" walkFactor="0.75"/>
    </person>
    <person id="ped175" type="ped_pedestrian" depart="175.00">
        <personTrip from="8025704#0" to="175357591#0" modes="public" walkFactor="0.75"/>
    </person>
    <person id="ped176" type="ped_pedestrian" depart="176.00">
        <personTrip from="579671836#1" to="-149670370" modes="public" walkFactor="0.75"/>
    </person>
    <person id="ped177" type="ped_pedestrian" depart="177.00">
        <personTrip from="70138930" to="-26444467#4" modes="public" walkFactor="0.75"/>
    </person>