<?xml version="1.0" encoding="UTF-8"?>

<!-- generated on Wed 07 Oct 2020 12:21:35 PM CEST by Eclipse SUMO netedit Version v1_7_0+0534-3eb4cebac1
<configuration xmlns:xsi="http://www.w3.org/2001/XMLSchema-instance" xsi:noNamespaceSchemaLocation="http://sumo.dlr.de/xsd/netconvertConfiguration.xsd">

    <input>
        <sumo-net-file value="norail.net.xml"/>
    </input>

    <output>
        <output-file value="norail.net.xml"/>
        <output.street-names value="true"/>
    </output>

    <processing>
        <geometry.min-radius.fix.railways value="false"/>
        <geometry.max-grade.fix value="false"/>
        <offset.disable-normalization value="true"/>
        <lefthand value="false"/>
    </processing>

    <junctions>
        <no-internal-links value="false"/>
        <no-turnarounds value="true"/>
        <junctions.corner-detail value="5"/>
        <junctions.limit-turn-speed value="5.5"/>
        <rectangular-lane-cut value="false"/>
    </junctions>

    <pedestrian>
        <walkingareas value="true"/>
    </pedestrian>

    <netedit>
        <route-files value="/home/kobo/dlr/SUMO2020/05_taxi/taxi.rou.xml"/>
    </netedit>

    <report>
        <aggregate-warnings value="5"/>
    </report>

</configuration>
-->

<routes xmlns:xsi="http://www.w3.org/2001/XMLSchema-instance" xsi:noNamespaceSchemaLocation="http://sumo.dlr.de/xsd/routes_file.xsd">
    <vType id="taxi" vClass="taxi">
        <param key="has.taxi.device" value="true"/>
    </vType>
    <flow id="taxi" type="taxi" begin="0.00" number="100" period="2.00">
        <route edges="25382187" color="cyan"/>
        <stop lane="25382187_0" startPos="0.00" endPos="-1.00" triggered="person"/>
    </flow>
</routes>
