<?xml version="1.0" encoding="UTF-8"?>

<!-- generated on 2023-05-31 12:27:32 by Eclipse SUMO netedit Version v1_16_0+2742-a558fa1bb55
<configuration xmlns:xsi="http://www.w3.org/2001/XMLSchema-instance" xsi:noNamespaceSchemaLocation="http://sumo.dlr.de/xsd/netconvertConfiguration.xsd">

    <input>
        <sumo-net-file value="/Users/hyesopshin/Github/GlasgowLEZ/SUMO_tutorial/sumolympics.net.xml"/>
    </input>

    <output>
        <output-file value="/Users/hyesopshin/Github/GlasgowLEZ/SUMO_tutorial/sumolympics.net.xml"/>
    </output>

    <processing>
        <offset.disable-normalization value="true"/>
    </processing>

    <junctions>
        <no-turnarounds value="true"/>
    </junctions>

    <netedit>
        <new-network value="false"/>
    </netedit>

</configuration>
-->

<net version="1.16" junctionCornerDetail="5" limitTurnSpeed="5.50" xmlns:xsi="http://www.w3.org/2001/XMLSchema-instance" xsi:noNamespaceSchemaLocation="http://sumo.dlr.de/xsd/net_file.xsd">

    <location netOffset="0.00,0.00" convBoundary="0.00,0.00,1000.00,0.00" origBoundary="10000000000.00,10000000000.00,-10000000000.00,-10000000000.00" projParameter="!"/>

    <edge id="E0" from="J0" to="J1" priority="-1">
        <lane id="E0_0" index="0" allow="pedestrian" speed="13.89" length="1000.00" width="2.00" shape="0.00,-11.60 1000.00,-11.60"/>
        <lane id="E0_1" index="1" allow="bicycle" speed="13.89" length="1000.00" width="1.00" shape="0.00,-10.10 1000.00,-10.10"/>
        <lane id="E0_2" index="2" allow="bus" speed="13.89" length="1000.00" shape="0.00,-8.00 1000.00,-8.00"/>
        <lane id="E0_3" index="3" disallow="pedestrian" speed="13.89" length="1000.00" shape="0.00,-4.80 1000.00,-4.80"/>
        <lane id="E0_4" index="4" disallow="pedestrian" speed="13.89" length="1000.00" shape="0.00,-1.60 1000.00,-1.60"/>
    </edge>

    <junction id="J0" type="dead_end" x="0.00" y="0.00" incLanes="" intLanes="" shape="0.00,0.00 0.00,-12.60"/>
    <junction id="J1" type="dead_end" x="1000.00" y="0.00" incLanes="E0_0 E0_1 E0_2 E0_3 E0_4" intLanes="" shape="1000.00,-12.60 1000.00,0.00"/>

</net>
