<?xml version="1.0" encoding="UTF-8"?>

<!-- generated on 2022-04-26 13:19:34 by Eclipse SUMO netedit Version v1_12_0+2287-92b56682bf6
-->

<routes xmlns:xsi="http://www.w3.org/2001/XMLSchema-instance" xsi:noNamespaceSchemaLocation="http://sumo.dlr.de/xsd/routes_file.xsd">
    <!-- Vehicles, persons and containers (sorted by depart) -->
    <trip id="t_0" depart="0.00" departPos="stop" from="-129519181#1" to="-129519181#1">
        <stop lane="-129519181#1_0" startPos="186.01" endPos="196.01" duration="3600.00"/>
    </trip>
    <trip id="t_1" depart="0.00" departPos="stop" from="-129519181#1" to="-129519181#1">
        <stop lane="-129519181#1_0" startPos="256.87" endPos="266.87" duration="3600.00"/>
    </trip>
    <trip id="t_2" depart="0.00" departPos="stop" from="192530508#0" to="192530508#0">
        <stop lane="192530508#0_0" startPos="452.42" endPos="462.42" duration="3600.00"/>
    </trip>
</routes>
