<?xml version="1.0" encoding="UTF-8"?>

<!-- generated on 2023-05-30 14:58:11.018889 by randomTrips.py v1_17_0+0000-737931d58da
<configuration>
    <net-file value="glasgow.net.xml"/>
    <output-trip-file value="delivery_trips.xml"/>
    <route-file value="delivery_routes.rou.xml"/>
    <trip-attributes value="color=&quot;115,211,230&quot;"/>
    <end value="600"/>
    <vehicle-class value="delivery"/>
    <period value="30.0"/>
</configuration>
-->

<!-- generated on 2023-05-30 14:58:10 by Eclipse SUMO duarouter Version 1.17.0
<configuration xmlns:xsi="http://www.w3.org/2001/XMLSchema-instance" xsi:noNamespaceSchemaLocation="http://sumo.dlr.de/xsd/duarouterConfiguration.xsd">

    <input>
        <net-file value="glasgow.net.xml"/>
        <route-files value="delivery_trips.xml"/>
    </input>

    <output>
        <output-file value="delivery_routes.rou.xml"/>
        <alternatives-output value="NUL"/>
    </output>

    <time>
        <begin value="0"/>
        <end value="600"/>
    </time>

    <report>
        <no-warnings value="true"/>
        <ignore-errors value="true"/>
        <no-step-log value="true"/>
    </report>

</configuration>
-->

<routes xmlns:xsi="http://www.w3.org/2001/XMLSchema-instance" xsi:noNamespaceSchemaLocation="http://sumo.dlr.de/xsd/routes_file.xsd">
    <vType id="delivery" vClass="delivery" color="115,211,230"/>
    <vehicle id="deliv0" type="delivery" depart="0.00">
        <route edges="45073628#6 4839472#0 4839472#1 -210429351#1 -210429351#0 -384212608#3 -384212608#2 198642284#0 198642284#1 198642284#2 198642284#3 43847349#2 1136445715 1136445706#0 1136445706#1 209263690#0 209263690#1 209263690#2 209263690#3 417313760#0 42796907#0 42796907#1 45051073#0 45051073#1 198044382#0 198044382#1 198044382#2 198044382#3 42796910#0 42796910#1 42796910#2 42796910#3 4497326#0 4497326#1 4497326#2 4567177 527034495 144176629 151952407 735349188 735349186 4642304#0 4642304#1 4642304#2 4642304#3 125068105 -125068105"/>
    </vehicle>
    <vehicle id="deliv1" type="delivery" depart="30.00">
        <route edges="-77670352#1 77670352#1 1089451382#1 1089451382#2 83607382#2 83607382#3 83607382#5 83607382#6 83607382#8 4741291#0 4741291#1 4494913#0 4494913#1 4494913#2 4494913#3 4494913#4 4494913#5 4494913#6 4494913#7 4494913#8 4494913#9 4494913#10 4494913#11 4494913#12 685023881#0 685023881#1 685023881#3 4475203#0 1097150695#1 1097150695#2 156536760#1 156536760#2 1103822695 4839479#0 4839479#1 1103822694 4839480 143784299 4839475 4981569 159408203 -476634672 -4904185#1 -4904185#0 -4904139#6 -4904139#5 -4904139#4 -4904139#3 -4904139#2 -4904139#1 -4904139#0 -45359120#0 4904149#1 4904149#2 4904149#3 968763898#0 968763898#1 45359065#0 45359065#1 -45359065#1 -45359065#0 -968763898#1 -968763898#0 -4904149#3 -4904149#2 -4904149#1"/>
    </vehicle>
    <vehicle id="deliv2" type="delivery" depart="60.00">
        <route edges="4717459#2 4717458 28072796#1 28072796#2 28072796#3 4296031#10 69067200 736368261 736368260 4296033 93230126#0 93230126#1 93230126#2 226152921#0 226152921#1 226150745 152135172 102730103 4345002#0 4345002#1 3469493 579403732 579403734 4470835 1801 1126700706 124452933 24324609 45494754"/>
    </vehicle>
    <vehicle id="deliv3" type="delivery" depart="90.00">
        <route edges="53804609#0 10111717 -10111717 -53804609#0 -10111716#8 -10111716#7 -10111716#6 -10111716#5 -10111716#4 -10111716#3 -10111716#2 -10111716#1 -10111716#0 10111714#0 10111714#1 4741295#6 4741295#7 4741295#8 4741295#9 4741295#10 4741295#11 9788059#1 9788059#2 11339912#0 11339912#1 47171927#0 12796510 35066914#0 4642304#0 4642304#1 4642304#2 4642304#3 721037390 4642302#0 4642302#1 4642302#2 4642302#3 201700816 26403933#2 45073934 26403934#0 26403934#1 26403934#2 26403934#3 143769307#0 143769307#1 45049554#0 45049554#1 45051074#0 45051074#1 144176630#0 144176630#1 144176630#2 144176630#3 144176630#4 45886019#0 45886019#1 1047548239#1 164500951 1136445712#0 1136445712#1 1136445712#2 1136445714 219273311#0 219273311#1 219273311#3 219273311#4 384212608#2 384212608#3 210429351#0 210429351#1 20279746#0 20279746#1 20279746#2 20279746#3 26303872 732295445#0 732295445#1 732295445#2 732295445#3 732295445#4 732295445#5 732295445#6 732295445#7 20279748 20279749 250478229#0 250478229#1 250478229#2 250478229#4 250478229#5 1039370199 -1039370199 -250478229#5 -250478229#4"/>
    </vehicle>
    <vehicle id="deliv6" type="delivery" depart="180.00">
        <route edges="-131860123#1 131860123#1 203955671#0 90682376 205819136 39891023#0 39891023#1 39891023#2 39891023#3 389802134#3 151952408 735349187 735349189 4548443#1 380618972 -730447301#1 -730447301#0 -380618974#6 -380618974#5 -380618974#4 -380618974#3 -380618974#2 -380618974#1 -380618974#0 380618971#0 380618971#1 386617897 4760219 386617898#0 386617898#1 262604451 206317573 1089451382#0 1089451382#1 1089451382#2 83607382#2 83607382#3 83607382#5 83607382#6 83607382#8 4741291#0 983637050#0 983637050#1 983637050#2 4677446#0 4677446#1 -172206441 -58648676#7 4844447#0 4844447#1 4844447#2 4844447#3 4844447#4 -4844447#4 -4844447#3"/>
    </vehicle>
    <vehicle id="deliv8" type="delivery" depart="240.00">
        <route edges="-48610084#2 -48610084#1 -48610084#0 -121017977 -121017976 -8746407#1 -8746407#0 -8746405#0 8746406#0 8746406#1 412176638 581609404#0 581609404#1 581609404#2 205819137#5 205819137#6 221119204#0 221119204#1 4573820#1 221112638 45049553 203403883#0 143769303 4483892#0 4483892#1 4483892#2 381215016 4483893#0 4483893#2 4483893#3 4483893#4 45051085 4397805"/>
    </vehicle>
    <vehicle id="deliv9" type="delivery" depart="270.00">
        <route edges="478853369 -22731338 202753580 -250478226 -20279749 -20279748 -732295445#7 -732295445#6 -732295445#5 -732295445#4 -732295445#3 -732295445#2 -732295445#1 -732295445#0 -26303872 -20279746#3 -20279746#2 -20279746#1 -20279746#0 -210429351#1 -210429351#0 -45051111#1 -45051111#0 28380058#0 28380058#1 28380058#2 185136473 185136472 45074530 4497320 4397805 4521153#0 4521153#1 4521153#2 1088915061 4981556#0 4981556#1 4981556#3 4981556#4 -1089452022#0 -47168895#1 -47168895#0 -4494913#5 -4494913#4 -4494913#3 -4494913#2 -4494913#1 -4494913#0 595233510 983637050#0 983637050#1 983637050#2 8119016#0 8119016#1 114002811#0 114002811#1 114002811#2 156536765 -28891695#2 102147604#0 102147604#1 -102147604#1 -102147604#0"/>
    </vehicle>
    <vehicle id="deliv10" type="delivery" depart="300.00">
        <route edges="4787501#1 4542288 4778497 45074531 745391452 114324471 4627829#0 4627829#1 417313760#0 42796907#0 42796907#1 45051073#0 45051073#1 198044382#0 198044382#1 198044382#2 198044382#3 42796910#0 42796910#1 42796910#2 42796910#3 4497326#0 4497326#1 4497326#2 26403932 4953267#0 4953267#1 4953265 4642302#0 4642302#1 4642302#2 4642302#3"/>
    </vehicle>
    <vehicle id="deliv11" type="delivery" depart="330.00">
        <route edges="1136445712#1 1136445712#2 1136445714 219273311#0 219273311#1 219273311#3 219273311#4 384212608#2 384212608#3 -45051111#1 -45051111#0 28380058#0 28380058#1 28380058#2 185136473 185136472 45074530 4497320 4397805 4521153#0 4521153#1 4521153#2 1088915061 4981556#0 4981556#1 4981556#3 4981556#4 -1089452022#0 -47168895#1 -47168895#0 -4494913#5 -4494913#4 -4494913#3 -4494913#2 -4494913#1 -4494913#0 595233510 983637050#0 983637050#1 983637050#2 8119016#0 8119016#1 114002811#0 114002811#1 114002811#2 156536765 -28891695#2 102147604#0 102147604#1 -4548199#2"/>
    </vehicle>
    <vehicle id="deliv12" type="delivery" depart="360.00">
        <route edges="8073926#3 8073926#4 -114001660#2 -114001660#1 114001660#1 114001660#2"/>
    </vehicle>
    <vehicle id="deliv13" type="delivery" depart="390.00">
        <route edges="-25548629#1 -25548629#0 4296031#6 4296031#7 262604454#1 257885007 257885008#0 69067217#5 69067217#6 69067217#7 69067217#8 4764309#0 4764309#1 23802762 8751900#1 8751900#2 8751900#3 131860123#0 131860123#1 203955671#0 90682376 205819136 39891023#0 39891023#1 39891023#2 39891023#3 389802134#3 151952408 735349187 735349189 4548443#1 380618972 -730447301#1 -730447301#0 -380618974#6 -380618974#5 -380618974#4 -380618974#3 -380618974#2 -380618974#1 -380618974#0 380618971#0 380618971#1 386617897 4760219 386617898#0 386617898#1 262604451 206317573 1089451382#0 1089451382#1 1089451382#2 8073925#0 8073925#1 8073925#2 8073926#3 8073926#4 -114001660#2 -114001660#1 28891837#0 28891837#1 -28891837#1 -28891837#0"/>
    </vehicle>
    <vehicle id="deliv14" type="delivery" depart="420.00">
        <route edges="48610084#1 48610084#2 -48610084#2 -48610084#1 -48610084#0 -121017977 -121017976 -8746407#1 -8746407#0 -8746405#0 8746406#0 8746406#1 412176638 581609404#0 581609404#1 581609404#2 205819137#5 205819137#6 221119204#0 221119204#1 4573820#1 221112638 45049553 203403883#0 -143769304#1 -143769304#0 -4483920#1 -4483920#0 4483920#0 4483920#1"/>
    </vehicle>
    <vehicle id="deliv15" type="delivery" depart="450.00">
        <route edges="4787503 45074531 745391452 114324471 4627829#0 4627829#1 4483920#0 4483920#1 143769304#0 143769304#1 143769303 4483892#0 4483892#1 4483892#2 381215016 4483893#0 4483893#2 4483893#3 4483893#4 45051085 4397805 4521153#0 4521153#1 4521153#2 1088915061 4981556#0 4981556#1 4981556#3 4981556#4 -1089452022#0 -47168895#1 -47168895#0 47168895#0"/>
    </vehicle>
    <vehicle id="deliv16" type="delivery" depart="480.00">
        <route edges="380618974#2 380618974#3 380618974#4 380618974#5 380618974#6 730447301#0 730447301#1 380618973#0 151952407 735349188 735349186 380808600#1 995103496 588506827 466695357#0 466695357#1 466695357#2 389802136 389802137 203957021#1 203957021#2 8751896#0 8751890#0"/>
    </vehicle>
    <vehicle id="deliv17" type="delivery" depart="510.00">
        <route edges="144176630#0 144176630#1 144176630#2 144176630#3 144176630#4 45886019#0 45886019#1 1047548239#1 164500951 45359295#0 45359295#1 45359295#2 45359713 45359292#0 4904139#3 4904139#4 4904139#5 4904139#6 45773042#0 45773048 45787305 383167848 32410 1126700706 159409664 55668653 384218087 384218090"/>
    </vehicle>
    <vehicle id="deliv18" type="delivery" depart="540.00">
        <route edges="4839476 330121113 59738304#1 833743727#0 833743727#1 24324676#0 24324676#1 -156536760#2 -156536760#1 -1097150695#2 -1097150695#1 -4475203#0 -685023881#3 -685023881#1 -685023881#0 -4494913#12 -4494913#11 -4494913#10 -4494913#9 -4494913#8 -4494913#7 -4494913#6 -4494913#5 -4494913#4 -4494913#3 -4494913#2 -4494913#1 -4494913#0 595233510 983637050#0 983637050#1 983637050#2 8119016#0 8119016#1 4494926#0 4494926#1 4494926#2"/>
    </vehicle>
    <vehicle id="deliv19" type="delivery" depart="570.00">
        <route edges="4904139#4 880908264 -880908264 -4904139#4 -4904139#3 1136445708#0 1136445708#1 1136445719#0 1136445719#1 1136445719#2 1136445717#0 1136445717#1 1136445715 1136445706#0 1136445706#1 209263690#0 209263690#1 209263690#2 209263690#3 417313760#0 42796907#0 42796907#1"/>
    </vehicle>
</routes>
