<?xml version="1.0" encoding="UTF-8"?>

<!-- generated on 2023-03-09 11:29:28 by Eclipse SUMO polyconvert Version 1.16.0
<configuration xmlns:xsi="http://www.w3.org/2001/XMLSchema-instance" xsi:noNamespaceSchemaLocation="http://sumo.dlr.de/xsd/polyconvertConfiguration.xsd">

    <input>
        <net-file value="test.net.xml"/>
        <osm-files value="map.osm"/>
        <type-file value="typemap.xml"/>
    </input>

    <output>
        <output-file value="map.poly.xml"/>
    </output>

    <report>
        <xml-validation value="never"/>
    </report>

</configuration>
-->

<additional xmlns:xsi="http://www.w3.org/2001/XMLSchema-instance" xsi:noNamespaceSchemaLocation="http://sumo.dlr.de/xsd/additional_file.xsd">
    <location netOffset="-298158.96,-5708519.64" convBoundary="-14.20,-0.00,400701.73,679747.58" origBoundary="-6.376996,51.493112,-0.133011,57.592074" projParameter="+proj=utm +zone=30 +ellps=WGS84 +datum=WGS84 +units=m +no_defs"/>

    <poly id="1000105319" type="water" color="181,209,209" fill="1" layer="-4.00" shape="124188.297434,483982.868919 124193.988142,483966.191166 124195.984350,483966.867828 124214.391577,483912.736347 124212.370120,483912.048997 124216.258239,483900.947382 124222.297392,483902.998761 124218.284447,483914.469967 124216.741514,483913.941019 124198.637802,483967.198743 124200.337939,483967.769394 124194.462625,483984.973657 124188.297434,483982.868919"/>
    <poly id="1000674571" type="landuse" color="194,194,130" fill="1" layer="-3.00" shape="124007.817001,483817.513165 123870.515032,483884.527147 123863.126177,483887.131523 123855.575672,483888.057872 123847.084831,483887.164368 123839.991765,483884.297580 123833.648143,483879.602767 123816.728459,483867.016575 123833.825477,483846.013934 123995.910959,483793.770849 124007.817001,483817.513165"/>
    <poly id="1000674572" type="landuse" color="194,194,130" fill="1" layer="-3.00" shape="123930.992510,483874.232400 123960.107403,483933.966870 123966.412323,483943.482769 123974.369165,483950.887265 123982.955690,483957.111580 123991.515637,483961.510722 124001.079204,483963.943719 124011.560869,483966.616274 124021.979324,483965.772240 124031.336682,483964.045596 124063.814844,483949.791896 124009.744267,483836.636902 123930.992510,483874.232400"/>
    <poly id="1000674573" type="landuse" color="194,194,130" fill="1" layer="-3.00" shape="124239.659967,483907.196091 124260.674231,483830.141648 124397.628558,483874.534166 124403.376315,483875.344212 124408.989577,483875.633463 124413.811556,483875.424792 124557.712605,483870.505421 124564.634271,483871.161146 124570.926251,483873.008118 124577.757517,483875.613591 124583.440448,483879.809184 124586.917716,483884.567340 124590.400234,483889.971066 124592.610771,483896.699938 124594.093071,483906.814821 124623.554164,484043.358686 124239.659967,483907.196091"/>
    <poly id="1003088427" type="leisure" color="207,245,201" fill="1" layer="-2.00" shape="124338.289441,481988.663602 124341.352483,481986.271085 124321.304289,481956.628778 124308.220231,481971.501529 124320.267071,481984.755797 124320.737062,481985.125879 124327.698421,481991.680587 124336.009913,481999.502475 124342.604628,481993.261891 124338.289441,481988.663602"/>
    <poly id="100613481" type="building" color="255,230,230" fill="1" layer="-1.00" shape="122829.319826,482349.234756 122829.558871,482353.416093 122832.241044,482353.200199 122832.285563,482354.268076 122836.118053,482392.069840 122833.762930,482393.738082 122831.631750,482395.669415 122829.303589,482398.472650 122827.776980,482400.938436 122826.455132,482403.645397 122809.241321,482405.272957 122808.959186,482402.506192 122806.902759,482402.699554 122806.153788,482393.562569 122803.504983,482361.283055 122803.615246,482359.433103 122803.988432,482357.923452 122804.676000,482356.485991 122805.873614,482355.206209 122807.406013,482354.087303 122808.832038,482353.315435 122811.193535,482352.682355 122819.009004,482351.382059 122819.165989,482352.436753 122821.013450,482352.113622 122820.866142,482350.902902 122829.319826,482349.234756"/>
    <poly id="100613482" type="building" color="255,230,230" fill="1" layer="-1.00" shape="122784.216112,482360.377032 122790.998713,482431.844298 122773.498490,482433.210057 122772.682075,482426.556782 122745.090592,482429.053064 122745.546458,482435.846503 122727.771102,482437.573700 122721.547012,482366.574989 122784.216112,482360.377032"/>
    <poly id="100613485" type="building" color="255,230,230" fill="1" layer="-1.00" shape="122856.468675,482400.738121 122887.217242,482398.307476 122886.970075,482395.395352 122892.389488,482394.895839 122888.407823,482356.439959 122886.116601,482354.745093 122883.947926,482352.903277 122887.090403,482349.428436 122885.642729,482347.295176 122883.508388,482345.619717 122881.096058,482344.494801 122878.484499,482344.119373 122874.495729,482344.103011 122843.873448,482347.299554 122844.069335,482352.205270 122841.429556,482352.342458 122841.400179,482353.478475 122845.165940,482391.058818 122848.071139,482392.430767 122850.499856,482394.111974 122852.998873,482396.214923 122855.072466,482398.336761 122856.468675,482400.738121"/>
    <poly id="100616452" type="building" color="255,230,230" fill="1" layer="-1.00" shape="122860.867828,482414.339364 122885.993969,482414.671792 122888.027005,482414.913048 122889.589443,482415.786282 122891.087693,482416.916726 122892.307553,482418.575455 122893.265541,482420.294617 122893.716767,482422.379242 122894.218511,482443.042538 122894.522734,482450.117054 122852.995568,482450.640170 122852.755128,482439.512382 122851.639787,482439.465923 122851.280715,482422.518172 122852.379890,482422.364546 122852.655111,482420.288945 122853.427675,482418.705224 122854.636555,482417.013359 122856.518818,482415.509598 122858.712071,482414.579042 122860.867828,482414.339364"/>
    <poly id="100616654" type="building" color="255,230,230" fill="1" layer="-1.00" shape="122840.460184,482747.953094 122835.727014,482722.546722 122793.022546,482730.461458 122794.972925,482740.934649 122793.138187,482741.602661 122795.704911,482755.660301 122834.663531,482749.027305 122840.460184,482747.953094"/>
    <poly id="100616656" type="building" color="255,230,230" fill="1" layer="-1.00" shape="122790.940117,482729.564353 122793.138187,482741.602661 122795.704911,482755.660301 122767.643585,482760.770000 122762.878626,482734.674081 122790.940117,482729.564353"/>
    <poly id="100617617" type="amenity" color="237,199,199" fill="1" layer="-1.00" shape="123343.720230,482927.427985 123364.901426,482922.702678 123364.969252,482922.990885 123365.655258,482922.844872 123365.728536,482923.088451 123367.473837,482922.667209 123367.419939,482922.456675 123370.830392,482921.682437 123370.904073,482921.948274 123372.705095,482921.492628 123372.596696,482921.038174 123373.356998,482920.846287 123373.132529,482919.859592 123372.391002,482920.051139 123371.712546,482917.157938 123371.549644,482916.459564 123372.123202,482916.326721 123371.973623,482915.672634 123372.783993,482915.479840 123372.471714,482914.138508 123371.648827,482914.331528 123371.526902,482913.821658 123371.159066,482913.906246 123370.351014,482910.425390 123370.768918,482910.339895 123370.632863,482909.741223 123371.424661,482909.559898 123371.071806,482908.052318 123370.261435,482908.245112 123370.092072,482907.535723 123369.680628,482907.632233 123369.564961,482907.122250 123368.926471,482904.361912 123369.804477,482904.101100 123369.507334,482902.904211 123368.653152,482903.097798 123368.430294,482902.200132 123366.654499,482902.666454 123366.659943,482902.966924 123363.544429,482903.780350 123363.474385,482903.369729 123361.528807,482903.794601 123361.625900,482904.316053 123360.876702,482904.429815 123360.903138,482904.852358 123339.912233,482909.718952 123340.952651,482914.620507 123339.714282,482915.032573 123338.778933,482915.928963 123338.267342,482916.717484 123337.944304,482917.892214 123337.984860,482919.093751 123338.617136,482920.473811 123339.504198,482921.403969 123340.482118,482921.820401 123341.900554,482922.017340 123342.630974,482921.903914 123343.720230,482927.427985"/>
    <poly id="100617617#1" type="building" color="255,230,230" fill="1" layer="-1.00" shape="123343.720230,482927.427985 123364.901426,482922.702678 123364.969252,482922.990885 123365.655258,482922.844872 123365.728536,482923.088451 123367.473837,482922.667209 123367.419939,482922.456675 123370.830392,482921.682437 123370.904073,482921.948274 123372.705095,482921.492628 123372.596696,482921.038174 123373.356998,482920.846287 123373.132529,482919.859592 123372.391002,482920.051139 123371.712546,482917.157938 123371.549644,482916.459564 123372.123202,482916.326721 123371.973623,482915.672634 123372.783993,482915.479840 123372.471714,482914.138508 123371.648827,482914.331528 123371.526902,482913.821658 123371.159066,482913.906246 123370.351014,482910.425390 123370.768918,482910.339895 123370.632863,482909.741223 123371.424661,482909.559898 123371.071806,482908.052318 123370.261435,482908.245112 123370.092072,482907.535723 123369.680628,482907.632233 123369.564961,482907.122250 123368.926471,482904.361912 123369.804477,482904.101100 123369.507334,482902.904211 123368.653152,482903.097798 123368.430294,482902.200132 123366.654499,482902.666454 123366.659943,482902.966924 123363.544429,482903.780350 123363.474385,482903.369729 123361.528807,482903.794601 123361.625900,482904.316053 123360.876702,482904.429815 123360.903138,482904.852358 123339.912233,482909.718952 123340.952651,482914.620507 123339.714282,482915.032573 123338.778933,482915.928963 123338.267342,482916.717484 123337.944304,482917.892214 123337.984860,482919.093751 123338.617136,482920.473811 123339.504198,482921.403969 123340.482118,482921.820401 123341.900554,482922.017340 123342.630974,482921.903914 123343.720230,482927.427985"/>
    <poly id="100617618" type="building" color="255,230,230" fill="1" layer="-1.00" shape="122754.908355,482703.449082 122783.675324,482698.905307 122787.751692,482724.668713 122756.974668,482729.527464 122752.891860,482703.764199 122754.908355,482703.449082"/>
    <poly id="100618051" type="building" color="255,230,230" fill="1" layer="-1.00" shape="123234.519285,482935.386147 123272.135129,482926.922354 123268.661558,482910.754679 123230.860047,482919.344322 123234.519285,482935.386147"/>
    <poly id="100618054" type="building" color="255,230,230" fill="1" layer="-1.00" shape="123272.135129,482926.922354 123285.917181,482923.967292 123281.103786,482901.578769 123267.321463,482904.522717 123268.661558,482910.754679 123272.135129,482926.922354"/>
    <poly id="100618055" type="building" color="255,230,230" fill="1" layer="-1.00" shape="123213.417421,482940.678397 123234.519285,482935.386147 123230.860047,482919.344322 123229.345072,482913.828001 123208.079378,482919.067587 123213.417421,482940.678397"/>
    <poly id="100618693" type="building" color="255,230,230" fill="1" layer="-1.00" shape="123301.125492,482908.863505 123320.216009,482904.498719 123318.501328,482895.557288 123318.398979,482895.091593 123299.082108,482899.404829 123301.125492,482908.863505"/>
    <poly id="100618697" type="building" color="255,230,230" fill="1" layer="-1.00" shape="123303.233473,482918.087235 123322.215339,482913.601973 123320.592689,482906.974360 123320.216009,482904.498719 123301.125492,482908.863505 123303.233473,482918.087235"/>
    <poly id="100619258" type="building" color="255,230,230" fill="1" layer="-1.00" shape="123131.397987,482957.151803 123109.729247,482962.243353 123101.962853,482929.333120 123123.625492,482924.241647 123125.660142,482932.854364 123131.397987,482957.151803"/>
    <poly id="100664842" type="building" color="255,230,230" fill="1" layer="-1.00" shape="123131.397987,482957.151803 123146.468670,482953.805517 123168.273363,482948.956591 123164.286805,482931.451315 123159.168057,482932.612974 123158.576479,482930.029926 123152.148519,482931.493677 123149.801566,482921.194534 123146.316249,482921.981438 123145.942317,482920.351804 123136.621156,482922.458143 123137.022551,482924.220864 123135.058630,482924.668436 123136.820487,482932.395541 123132.462441,482933.387561 123132.013192,482931.403066 123125.660142,482932.854364 123131.397987,482957.151803"/>
    <poly id="100664843" type="building" color="255,230,230" fill="1" layer="-1.00" shape="123168.273363,482948.956591 123196.588424,482942.698246 123189.006574,482909.227917 123160.706244,482915.619624 123164.286805,482931.451315 123168.273363,482948.956591"/>
    <poly id="100664845" type="building" color="255,230,230" fill="1" layer="-1.00" shape="123128.315262,482917.042977 123147.890714,482912.501632 123140.861028,482879.811730 123121.866854,482883.964046 123128.315262,482917.042977"/>
    <poly id="100664846" type="building" color="255,230,230" fill="1" layer="-1.00" shape="123128.315262,482917.042977 123104.334954,482922.410327 123096.374841,482889.180792 123121.866854,482883.964046 123128.315262,482917.042977"/>
    <poly id="100664848" type="building" color="255,230,230" fill="1" layer="-1.00" shape="123147.890714,482912.501632 123187.092623,482904.153008 123179.724861,482871.446925 123140.861028,482879.811730 123147.890714,482912.501632"/>
    <poly id="1010368441" type="building" color="255,230,230" fill="1" layer="-1.00" shape="122868.514828,483153.521239 122866.403167,483144.141912 122870.231238,483143.281734 122869.387061,483139.556711 122865.290904,483140.477439 122861.959805,483125.676710 122878.732706,483121.997865 122882.104747,483136.987107 122875.441198,483138.555764 122876.149657,483141.704388 122882.519477,483140.163351 122884.739550,483149.997128 122868.514828,483153.521239"/>
    <poly id="1010368442" type="building" color="255,230,230" fill="1" layer="-1.00" shape="122884.739550,483149.997128 122882.519477,483140.163351 122888.772830,483138.758032 122888.071246,483135.642677 122882.104747,483136.987107 122878.732706,483121.997865 122894.699755,483118.411699 122897.996818,483133.068352 122900.987099,483146.350208 122884.739550,483149.997128"/>
    <poly id="1014867603" type="building" color="255,230,230" fill="1" layer="-1.00" shape="122486.744075,483413.555942 122482.345026,483394.511399 122488.884120,483393.011196 122493.289399,483412.055631 122486.744075,483413.555942"/>
    <poly id="1014867604" type="landuse" color="194,194,130" fill="1" layer="-3.00" shape="122701.171303,483328.790554 122784.853003,483309.873873 122801.019831,483381.080888 122717.327145,483400.008626 122701.171303,483328.790554"/>
    <poly id="101513463" type="parking" color="184,184,179" fill="1" layer="-1.00" shape="124356.917850,482915.687610 124350.648180,482849.374647 124393.034411,482841.113631 124396.879600,482893.710736 124398.903669,482910.628702 124392.621118,482911.141776 124356.917850,482915.687610"/>
    <poly id="101513464" type="building" color="255,230,230" fill="1" layer="-1.00" shape="124308.110752,482942.921666 124307.497616,482933.848861 124320.916171,482932.940786 124318.632901,482899.106722 124328.725261,482898.436313 124331.239158,482935.717198 124328.025135,482935.930557 124328.407522,482941.556547 124308.110752,482942.921666"/>
    <poly id="101513466" type="building" color="255,230,230" fill="1" layer="-1.00" shape="124235.541456,482967.442682 124230.241788,482941.744583 124238.699642,482940.001169 124239.541732,482939.830234 124244.835088,482965.528456 124240.612343,482966.394479 124235.541456,482967.442682"/>
    <poly id="101513467" type="building" color="255,230,230" fill="1" layer="-1.00" shape="124079.208377,482974.097961 124075.854978,482958.873789 124149.947073,482941.803535 124149.067233,482937.077044 124157.548321,482934.186448 124166.527679,482932.199767 124168.554183,482933.143054 124170.635488,482933.651208 124170.991234,482936.383324 124170.657580,482938.025724 124170.298781,482942.106503 124169.549677,482951.303911 124165.880970,482953.740829 124156.272971,482954.881616 124153.720885,482955.350404 124154.874331,482961.719540 124091.203274,482974.450389 124079.906923,482977.091088 124079.208377,482974.097961"/>
    <poly id="101513468" type="residential" color="235,235,227" fill="1" layer="-3.00" shape="124191.460627,483009.955705 124182.088831,482974.679130 124185.549973,482939.361749 124188.821998,482914.445136 124189.595239,482905.892963 124185.794404,482880.357289 124195.351411,482877.759183 124214.291017,482872.610689 124217.282033,482884.056539 124239.998822,482927.253919 124252.332979,482961.920941 124260.713019,483004.072780 124191.460627,483009.955705"/>
    <poly id="101513469" type="building" color="255,230,230" fill="1" layer="-1.00" shape="124256.506530,482931.043707 124254.628683,482913.232607 124285.028678,482910.049929 124283.588052,482896.372127 124297.528928,482894.909158 124302.661731,482943.831841 124294.713429,482944.664309 124294.266490,482940.330797 124290.904661,482940.680415 124291.266425,482944.102620 124277.694356,482945.525613 124276.736745,482936.447847 124273.762336,482936.757144 124274.977374,482948.323888 124265.016879,482949.359423 124264.066098,482940.314932 124263.017613,482930.359361 124256.506530,482931.043707"/>
    <poly id="101513470" type="building" color="255,230,230" fill="1" layer="-1.00" shape="124281.543354,482873.432115 124280.059053,482860.812644 124333.980360,482854.493023 124335.464704,482867.123640 124281.543354,482873.432115"/>
    <poly id="101513471" type="building" color="255,230,230" fill="1" layer="-1.00" shape="124221.590367,482928.841654 124218.995540,482917.143796 124226.334976,482915.520589 124227.900057,482915.169717 124230.501119,482926.867467 124221.590367,482928.841654"/>
    <poly id="101513472" type="building" color="255,230,230" fill="1" layer="-1.00" shape="124040.029871,483144.120728 124048.041842,483084.809701 124075.333366,483088.483057 124075.621031,483086.373925 124109.878054,483090.980001 124105.115017,483126.265174 124054.456788,483146.065779 124040.029871,483144.120728"/>
    <poly id="101513473" type="building" color="255,230,230" fill="1" layer="-1.00" shape="124201.405159,482977.650240 124190.661261,482925.199162 124199.861889,482923.331037 124210.605480,482975.771008 124201.405159,482977.650240"/>
    <poly id="101513475" type="building" color="255,230,230" fill="1" layer="-1.00" shape="124262.399353,482797.252969 124262.879850,482789.474171 124238.046050,482790.286322 124190.551969,482801.401159 124191.847118,482808.691726 124239.101821,482797.848359 124262.399353,482797.252969"/>
    <poly id="101513477" type="landuse" color="194,194,130" fill="1" layer="-3.00" shape="124057.218488,482978.433530 124056.328079,482971.380635 124060.157710,482961.871849 124056.346983,482955.350072 124053.445722,482943.346105 124055.865073,482937.925857 124054.449978,482934.077297 124052.047194,482924.034762 124052.865400,482918.698926 124080.150406,482911.140169 124078.487772,482903.266226 124118.910741,482893.802082 124124.414872,482899.102397 124130.646078,482906.894397 124139.505222,482912.513038 124144.132235,482931.042905 124146.647851,482941.105725 124072.387978,482958.245840 124075.649982,482974.306558 124057.218488,482978.433530"/>
    <poly id="101513479" type="building" color="255,230,230" fill="1" layer="-1.00" shape="124045.647587,483003.432507 124040.862068,482983.068784 124054.589737,482979.861114 124079.208377,482974.097961 124079.906923,482977.091088 124091.203274,482974.450389 124095.283771,482991.821149 124051.894215,483001.973342 124045.647587,483003.432507"/>
    <poly id="101513480" type="building" color="255,230,230" fill="1" layer="-1.00" shape="124265.685349,482898.941370 124261.369115,482859.633352 124215.794616,482864.635435 124216.871720,482874.434636 124228.849481,482873.117946 124228.490655,482869.862673 124236.563458,482868.983328 124236.840476,482871.516481 124252.736139,482869.784578 124254.217090,482883.261272 124257.228687,482882.929032 124258.103432,482890.872807 124254.891769,482891.219762 124255.856966,482900.019086 124265.685349,482898.941370"/>
    <poly id="101513481" type="building" color="255,230,230" fill="1" layer="-1.00" shape="124266.751168,482838.196766 124265.684728,482830.735103 124316.968615,482823.249113 124318.038353,482830.899973 124266.751168,482838.196766"/>
    <poly id="101513482" type="building" color="255,230,230" fill="1" layer="-1.00" shape="123990.833037,482978.045330 124033.837599,482966.318686 124050.576046,482962.734095 124052.362301,482972.609587 124054.589737,482979.861114 124040.862068,482983.068784 124041.353939,482982.570137 124040.219007,482978.983720 124038.392913,482979.439538 124038.941968,482988.747245 124025.651170,482988.741073 124025.777724,482992.301072 124024.706066,482995.025424 124021.683819,482997.896139 124017.883170,482998.209325 124014.784293,482997.162922 124012.113217,482994.839774 124011.071359,482992.253581 124011.078136,482988.101185 123993.656120,482991.264064 123990.833037,482978.045330"/>
    <poly id="101513483" type="building" color="255,230,230" fill="1" layer="-1.00" shape="124247.745997,483001.867107 124240.612343,482966.394479 124244.835088,482965.528456 124249.188861,482964.637827 124256.490823,483000.074056 124247.745997,483001.867107"/>
    <poly id="101513484" type="building" color="255,230,230" fill="1" layer="-1.00" shape="124325.507718,482834.428766 124323.656842,482821.259239 124326.354762,482820.888133 124323.133062,482797.935774 124332.762696,482796.583471 124336.049633,482820.035612 124337.773211,482819.793266 124339.552498,482832.463135 124325.507718,482834.428766"/>
    <poly id="101513485" type="building" color="255,230,230" fill="1" layer="-1.00" shape="124216.669726,482917.664152 124213.836691,482904.901886 124220.914289,482903.339022 124223.502168,482902.769445 124226.334976,482915.520589 124218.995540,482917.143796 124216.669726,482917.664152"/>
    <poly id="101513486" type="building" color="255,230,230" fill="1" layer="-1.00" shape="123941.325756,483002.390701 123937.830527,482984.875960 123931.904627,482958.220948 123942.438173,482955.983204 123948.105017,482982.509301 123989.896046,482973.631592 123990.833037,482978.045330 123993.656120,482991.264064 123941.325756,483002.390701"/>
    <poly id="101513487" type="building" color="255,230,230" fill="1" layer="-1.00" shape="124197.253525,483004.486199 124195.071668,482994.873785 124233.417479,482986.216039 124235.599254,482995.828471 124197.253525,483004.486199"/>
    <poly id="101513488" type="building" color="255,230,230" fill="1" layer="-1.00" shape="124311.892510,482983.174384 124310.176226,482951.990742 124300.588529,482952.518579 124301.256659,482964.662855 124302.695083,482964.581447 124303.113557,482972.221697 124301.531194,482972.305682 124302.160941,482983.704795 124311.892510,482983.174384"/>
    <poly id="101513489" type="building" color="255,230,230" fill="1" layer="-1.00" shape="124269.085001,482796.866078 124314.391504,482802.734281 124315.305160,482795.715853 124269.998586,482789.847639 124269.085001,482796.866078"/>
    <poly id="101513490" type="parking" color="184,184,179" fill="1" layer="-1.00" shape="124373.257645,482986.406900 124367.573186,482954.548363 124364.009504,482954.812478 124362.784845,482945.494567 124391.683603,482944.142881 124395.836975,482943.946172 124401.797145,482985.985662 124373.257645,482986.406900"/>
    <poly id="101513491" type="amenity" color="237,199,199" fill="1" layer="-1.00" shape="124253.987271,483085.735786 124256.740346,483059.793237 124233.740128,483038.119188 124207.610325,483027.666831 124190.425925,483026.271635 124179.015546,483025.340720 124178.106558,483036.444581 124174.489167,483036.153212 124172.947714,483054.927295 124176.433468,483055.209891 124175.671865,483064.407523 124175.568649,483065.633904 124166.590941,483064.904314 124165.015780,483083.890516 124171.322679,483084.400821 124169.779270,483103.063622 124174.330866,483103.438425 124178.309866,483106.094445 124253.987271,483085.735786"/>
    <poly id="101513491#1" type="building" color="255,230,230" fill="1" layer="-1.00" shape="124253.987271,483085.735786 124256.740346,483059.793237 124233.740128,483038.119188 124207.610325,483027.666831 124190.425925,483026.271635 124179.015546,483025.340720 124178.106558,483036.444581 124174.489167,483036.153212 124172.947714,483054.927295 124176.433468,483055.209891 124175.671865,483064.407523 124175.568649,483065.633904 124166.590941,483064.904314 124165.015780,483083.890516 124171.322679,483084.400821 124169.779270,483103.063622 124174.330866,483103.438425 124178.309866,483106.094445 124253.987271,483085.735786"/>
    <poly id="101513492" type="building" color="255,230,230" fill="1" layer="-1.00" shape="124218.150287,482846.214148 124216.876912,482838.388844 124258.135095,482831.816531 124259.415174,482840.020216 124218.150287,482846.214148"/>
    <poly id="101513493" type="building" color="255,230,230" fill="1" layer="-1.00" shape="124213.512853,482945.172453 124211.620614,482936.000125 124228.711173,482932.487845 124227.881331,482928.450633 124235.977419,482926.780488 124238.699642,482940.001169 124230.241788,482941.744583 124213.512853,482945.172453"/>
    <poly id="101513494" type="building" color="255,230,230" fill="1" layer="-1.00" shape="124106.459514,483125.138968 124111.306860,483086.178692 124118.597426,483087.083156 124119.735791,483077.956675 124138.087692,483080.232342 124136.385949,483093.899687 124135.296691,483102.624527 124139.381326,483103.141255 124137.821341,483115.637187 124106.459514,483125.138968"/>
    <poly id="101513495" type="building" color="255,230,230" fill="1" layer="-1.00" shape="124220.914289,482903.339022 124217.884409,482889.723110 124216.213126,482890.087020 124207.595454,482892.000321 124210.619106,482905.616339 124213.836691,482904.901886 124220.914289,482903.339022"/>
    <poly id="101513496" type="building" color="255,230,230" fill="1" layer="-1.00" shape="124267.721621,483006.006700 124266.501827,482996.621931 124275.683194,482995.433366 124275.929653,482997.310275 124283.518343,482996.328360 124283.184235,482993.751698 124306.468780,482990.741088 124306.744641,482992.862379 124313.021689,482992.048709 124312.745831,482989.927418 124322.789277,482988.634468 124324.031310,482998.219229 124314.337754,482999.472518 124314.141493,482997.950936 124307.514786,482998.815391 124307.842023,483001.358781 124284.476376,483004.381968 124284.178741,483002.094088 124277.564362,483002.947236 124277.796111,483004.701956 124267.721621,483006.006700"/>
    <poly id="101513497" type="building" color="255,230,230" fill="1" layer="-1.00" shape="124216.213126,482890.087020 124212.856094,482874.985273 124202.561047,482877.273737 124205.917913,482892.364348 124207.595454,482892.000321 124216.213126,482890.087020"/>
    <poly id="101519059" type="unknown" color="51,128,255" fill="0" layer="-1.00" shape="123966.570559,482921.429398 123964.948759,482914.445328 123977.274052,482911.574327 123977.712512,482912.980224 123987.685448,482910.196065 123987.964044,482911.415589 123994.069903,482909.780760"/>
    <poly id="101519065" type="landuse" color="194,194,130" fill="1" layer="-3.00" shape="123915.398365,482870.652118 123912.745752,482858.922065 123944.288452,482851.731152 123942.248280,482858.736536 123915.398365,482870.652118"/>
    <poly id="101519067" type="water" color="181,209,209" fill="1" layer="-4.00" shape="123961.711636,482912.677859 123960.749913,482908.631930 123975.040425,482907.818429 123974.738934,482909.504796 123961.711636,482912.677859"/>
    <poly id="101519087" type="leisure" color="207,245,201" fill="1" layer="-2.00" shape="124005.994455,482871.016016 124007.261609,482861.052281 124020.887316,482862.254658 124019.853294,482872.303256 124005.994455,482871.016016"/>
    <poly id="101519089" type="unknown" color="51,128,255" fill="0" layer="-1.00" shape="123943.954272,482932.021910 123946.765244,482942.468939"/>
    <poly id="101519092" type="landuse" color="194,194,130" fill="1" layer="-3.00" shape="123926.183575,482922.422797 123922.154825,482903.793321 123968.743573,482893.604601 123967.060913,482898.210145 123969.740157,482899.241795 123966.664353,482904.707291 123959.386680,482905.583978 123961.160894,482912.687760 123936.698502,482918.448768 123930.287052,482921.191253 123926.183575,482922.422797"/>
    <poly id="101519096" type="building" color="255,230,230" fill="1" layer="-1.00" shape="123961.268501,482937.477024 123960.745734,482935.560569 123965.062993,482934.380874 123965.592217,482936.308347 123961.268501,482937.477024"/>
    <poly id="101519099" type="unknown" color="51,128,255" fill="0" layer="-1.00" shape="123964.808146,482873.192275 123977.183883,482869.986408"/>
    <poly id="101519102" type="building" color="255,230,230" fill="1" layer="-1.00" shape="123948.061985,482942.167319 123947.130381,482939.100477 123952.603690,482937.454699 123956.769543,482936.210926 123959.484196,482935.382872 123965.667369,482933.523969 123966.592703,482936.590928 123960.409733,482938.460957 123957.725974,482939.266191 123953.535290,482940.521542 123948.061985,482942.167319"/>
    <poly id="101519103" type="unknown" color="51,128,255" fill="0" layer="-1.00" shape="123914.148111,482871.798951 123911.631443,482858.229656 123939.869742,482851.799478"/>
    <poly id="101519104" type="building" color="255,230,230" fill="1" layer="-1.00" shape="124015.604479,482920.158565 124016.408512,482910.203154 124017.662397,482910.303080 124016.858560,482920.269620 124015.604479,482920.158565"/>
    <poly id="101519105" type="unknown" color="51,128,255" fill="0" layer="-1.00" shape="123981.185030,482868.979395 123997.384388,482865.337506"/>
    <poly id="101519106" type="unknown" color="51,128,255" fill="0" layer="-1.00" shape="123940.952534,482932.899665 123944.097463,482943.118046"/>
    <poly id="101519112" type="unknown" color="51,128,255" fill="0" layer="-1.00" shape="123941.484207,482943.665984 123938.224766,482933.694571 123940.952534,482932.899665 123943.954272,482932.021910 123969.730345,482924.467321 123995.473753,482917.180645"/>