<?xml version="1.0" encoding="UTF-8"?>

<!-- generated on 2023-05-30 14:58:13.778043 by randomTrips.py v1_17_0+0000-737931d58da
<configuration>
    <net-file value="glasgow.net.xml"/>
    <output-trip-file value="passenger_trips.xml"/>
    <route-file value="passenger_routes.rou.xml"/>
    <trip-attributes value="color=&quot;255,255,255&quot;"/>
    <end value="600"/>
    <vehicle-class value="passenger"/>
    <period value="0.1"/>
</configuration>
-->

<routes xmlns:xsi="http://www.w3.org/2001/XMLSchema-instance" xsi:noNamespaceSchemaLocation="http://sumo.dlr.de/xsd/routes_file.xsd">
    <vType id="passenger" vClass="passenger" color="255,255,255"/>
    <trip id="0" depart="0.00" from="45073628#6" to="-125068105" type="passenger"/>
    <trip id="1" depart="0.10" from="-77670352#1" to="-4904149#1" type="passenger"/>
    <trip id="2" depart="0.20" from="4717459#2" to="45494754" type="passenger"/>
    <trip id="3" depart="0.30" from="53804609#0" to="-250478229#4" type="passenger"/>
    <trip id="4" depart="0.40" from="20279750#0" to="-139718604#1" type="passenger"/>
    <trip id="5" depart="0.50" from="-485899794#3" to="26733953#1" type="passenger"/>
    <trip id="6" depart="0.60" from="-131860123#1" to="-4844447#3" type="passenger"/>
    <trip id="7" depart="0.70" from="4521175#0" to="384186897" type="passenger"/>
    <trip id="8" depart="0.80" from="-48610084#2" to="4397805" type="passenger"/>
    <trip id="9" depart="0.90" from="478853369" to="-102147604#0" type="passenger"/>
    <trip id="10" depart="1.00" from="4787501#1" to="4642302#3" type="passenger"/>
    <trip id="11" depart="1.10" from="1136445712#1" to="-4548199#2" type="passenger"/>
    <trip id="12" depart="1.20" from="8073926#3" to="114001660#2" type="passenger"/>
    <trip id="13" depart="1.30" from="-25548629#1" to="-28891837#0" type="passenger"/>
    <trip id="14" depart="1.40" from="48610084#1" to="4483920#1" type="passenger"/>
    <trip id="15" depart="1.50" from="4787503" to="47168895#0" type="passenger"/>
    <trip id="16" depart="1.60" from="380618974#2" to="8751890#0" type="passenger"/>
    <trip id="17" depart="1.70" from="144176630#0" to="384218090" type="passenger"/>
    <trip id="18" depart="1.80" from="4839476" to="4494926#2" type="passenger"/>
    <trip id="19" depart="1.90" from="4904139#4" to="42796907#1" type="passenger"/>
    <trip id="20" depart="2.00" from="4644888#0" to="-197572274" type="passenger"/>
    <trip id="21" depart="2.10" from="-4904139#4" to="-96646976#1" type="passenger"/>
    <trip id="22" depart="2.20" from="-210429351#1" to="-4991182#7" type="passenger"/>
    <trip id="23" depart="2.30" from="-28891834#3" to="-8751890#1" type="passenger"/>
    <trip id="24" depart="2.40" from="45051125#0" to="143769306#4" type="passenger"/>
    <trip id="25" depart="2.50" from="139718604#2" to="-485899794#1" type="passenger"/>
    <trip id="26" depart="2.60" from="-77658164#0" to="736368178" type="passenger"/>
    <trip id="27" depart="2.70" from="4521152#2" to="4494912#3" type="passenger"/>
    <trip id="28" depart="2.80" from="-4627829#0" to="4713057#0" type="passenger"/>
    <trip id="29" depart="2.90" from="-4548200#0" to="164087238#1" type="passenger"/>
    <trip id="30" depart="3.00" from="96646975#1" to="45073977#0" type="passenger"/>
    <trip id="31" depart="3.10" from="384218092#1" to="45787305" type="passenger"/>
    <trip id="32" depart="3.20" from="4844458#2" to="4750189#4" type="passenger"/>
    <trip id="33" depart="3.30" from="-4904140#0" to="-143769306#1" type="passenger"/>
    <trip id="34" depart="3.40" from="102147604#0" to="-8073923#0" type="passenger"/>
    <trip id="35" depart="3.50" from="-4844454#2" to="77658164#1" type="passenger"/>
    <trip id="36" depart="3.60" from="4981556#1" to="1089451382#2" type="passenger"/>
    <trip id="37" depart="3.70" from="45359120#3" to="196934179#9" type="passenger"/>
    <trip id="38" depart="3.80" from="655636411" to="22287200#0" type="passenger"/>
    <trip id="39" depart="3.90" from="-736817048" to="-685023881#3" type="passenger"/>
    <trip id="40" depart="4.00" from="389802134#1" to="-77670348#1" type="passenger"/>
    <trip id="41" depart="4.10" from="4296031#0" to="581608794" type="passenger"/>
    <trip id="42" depart="4.20" from="196934179#10" to="-4904139#5" type="passenger"/>
    <trip id="43" depart="4.30" from="983637050#1" to="28776351#1" type="passenger"/>
    <trip id="44" depart="4.40" from="-250478229#2" to="-198044378#4" type="passenger"/>
    <trip id="45" depart="4.50" from="-384186891#3" to="45051067#3" type="passenger"/>
    <trip id="46" depart="4.60" from="4764315" to="20279768#2" type="passenger"/>
    <trip id="47" depart="4.70" from="-20279759#4" to="164500952#0" type="passenger"/>
    <trip id="48" depart="4.80" from="9788059#1" to="380554729" type="passenger"/>
    <trip id="49" depart="4.90" from="8751310#1" to="4904140#3" type="passenger"/>
    <trip id="50" depart="5.00" from="-1089452022#0" to="4677320#0" type="passenger"/>
    <trip id="51" depart="5.10" from="45570240#0" to="382336253#2" type="passenger"/>
    <trip id="52" depart="5.20" from="-77647202#1" to="45074078#0" type="passenger"/>
    <trip id="53" depart="5.30" from="-386618432#1" to="20466087" type="passenger"/>
    <trip id="54" depart="5.40" from="209263691#4" to="8073108#2" type="passenger"/>
    <trip id="55" depart="5.50" from="4981556#0" to="-77670352#0" type="passenger"/>
    <trip id="56" depart="5.60" from="257885008#2" to="-4745074" type="passenger"/>
    <trip id="57" depart="5.70" from="60840346#0" to="491303421" type="passenger"/>
    <trip id="58" depart="5.80" from="-964670164" to="45073976#1" type="passenger"/>
    <trip id="59" depart="5.90" from="4494909#1" to="-45359877#8" type="passenger"/>
    <trip id="60" depart="6.00" from="4745018#3" to="384185250#0" type="passenger"/>
    <trip id="61" depart="6.10" from="4750189#3" to="380618971#1" type="passenger"/>
    <trip id="62" depart="6.20" from="-10111716#0" to="11339912#1" type="passenger"/>
    <trip id="63" depart="6.30" from="-116370279#0" to="725686376#0" type="passenger"/>
    <trip id="64" depart="6.40" from="4991161#2" to="4844451#1" type="passenger"/>
    <trip id="65" depart="6.50" from="10111714#1" to="-20279756#2" type="passenger"/>
    <trip id="66" depart="6.60" from="4991161#0" to="77664375#0" type="passenger"/>
    <trip id="67" depart="6.70" from="-23605431#0" to="250478229#2" type="passenger"/>
    <trip id="68" depart="6.80" from="-20279774#3" to="4745019#4" type="passenger"/>
    <trip id="69" depart="6.90" from="4745019#8" to="-4494926#2" type="passenger"/>
    <trip id="70" depart="7.00" from="22731339" to="384210565#0" type="passenger"/>
    <trip id="71" depart="7.10" from="-736817048" to="4953267#0" type="passenger"/>
    <trip id="72" depart="7.20" from="20279753#1" to="-48610084#1" type="passenger"/>
    <trip id="73" depart="7.30" from="381215016" to="47168895#0" type="passenger"/>
    <trip id="74" depart="7.40" from="-4839473#0" to="1047548238#1" type="passenger"/>
    <trip id="75" depart="7.50" from="9787930#0" to="45359120#0" type="passenger"/>
    <trip id="76" depart="7.60" from="20448005#2" to="32405" type="passenger"/>
    <trip id="77" depart="7.70" from="-4475215#4" to="-4904150#2" type="passenger"/>
    <trip id="78" depart="7.80" from="1136445710#2" to="438870170#1" type="passenger"/>
    <trip id="79" depart="7.90" from="-4904141#0" to="-4904140#0" type="passenger"/>
    <trip id="80" depart="8.00" from="-203957021#2" to="45051111#0" type="passenger"/>
    <trip id="81" depart="8.10" from="-4904140#0" to="58648676#6" type="passenger"/>
    <trip id="82" depart="8.20" from="4903953#1" to="-20450086" type="passenger"/>
    <trip id="83" depart="8.30" from="-4904186#0" to="4548200#1" type="passenger"/>
    <trip id="84" depart="8.40" from="-4844458#0" to="-45051111#0" type="passenger"/>
    <trip id="85" depart="8.50" from="735349187" to="417402316" type="passenger"/>
    <trip id="86" depart="8.60" from="226578078#6" to="4764303#1" type="passenger"/>
    <trip id="87" depart="8.70" from="4787503" to="-4787481" type="passenger"/>
    <trip id="88" depart="8.80" from="-26303872" to="20448005#3" type="passenger"/>
    <trip id="89" depart="8.90" from="20279753#2" to="226585764#3" type="passenger"/>
    <trip id="90" depart="9.00" from="4683301#4" to="4548297#0" type="passenger"/>
    <trip id="91" depart="9.10" from="93256779#2" to="-28891919#2" type="passenger"/>
    <trip id="92" depart="9.20" from="196934179#9" to="115894396#0" type="passenger"/>
    <trip id="93" depart="9.30" from="4904139#4" to="-706496749#2" type="passenger"/>
    <trip id="94" depart="9.40" from="-4750193#3" to="219273311#1" type="passenger"/>
    <trip id="95" depart="9.50" from="20279750#0" to="-8751894#0" type="passenger"/>
    <trip id="96" depart="9.60" from="-58169414" to="69067221#1" type="passenger"/>
    <trip id="97" depart="9.70" from="204790848" to="4904141#0" type="passenger"/>
    <trip id="98" depart="9.80" from="384188710" to="-202753993#2" type="passenger"/>
    <trip id="99" depart="9.90" from="995103496" to="4844455#2" type="passenger"/>
    <trip id="100" depart="10.00" from="8746406#0" to="706496748#1" type="passenger"/>
    <trip id="101" depart="10.10" from="4862551#0" to="-4638062#3" type="passenger"/>
    <trip id="102" depart="10.20" from="23814109" to="-4865968#3" type="passenger"/>
    <trip id="103" depart="10.30" from="196934179#3" to="-20279759#1" type="passenger"/>
    <trip id="104" depart="10.40" from="144176630#1" to="93269804#4" type="passenger"/>
    <trip id="105" depart="10.50" from="-736817048" to="4764294#1" type="passenger"/>
    <trip id="106" depart="10.60" from="219273311#0" to="20279770#1" type="passenger"/>
    <trip id="107" depart="10.70" from="8073926#3" to="9702630#1" type="passenger"/>
    <trip id="108" depart="10.80" from="384218087" to="466695357#0" type="passenger"/>
    <trip id="109" depart="10.90" from="-45359121#1" to="10111716#0" type="passenger"/>
    <trip id="110" depart="11.00" from="8746405#0" to="42796910#3" type="passenger"/>
    <trip id="111" depart="11.10" from="384169518" to="4744975#6" type="passenger"/>
    <trip id="112" depart="11.20" from="-20279750#0" to="430737809#0" type="passenger"/>
    <trip id="113" depart="11.30" from="262604454#0" to="4869276#1" type="passenger"/>
    <trip id="114" depart="11.40" from="-45359877#10" to="83607382#2" type="passenger"/>
    <trip id="115" depart="11.50" from="-2118" to="-4764318#2" type="passenger"/>
    <trip id="116" depart="11.60" from="4470836" to="4548297#5" type="passenger"/>
    <trip id="117" depart="11.70" from="-4904182#0" to="-4494912#4" type="passenger"/>
    <trip id="118" depart="11.80" from="5171329" to="-685023881#1" type="passenger"/>
    <trip id="119" depart="11.90" from="4397805" to="4494926#4" type="passenger"/>
    <trip id="120" depart="12.00" from="202753993#3" to="4296033" type="passenger"/>
    <trip id="121" depart="12.10" from="32565783#0" to="732295445#7" type="passenger"/>
    <trip id="122" depart="12.20" from="-4839478#3" to="4644902#3" type="passenger"/>
    <trip id="123" depart="12.30" from="-4991161#1" to="197572274" type="passenger"/>
    <trip id="124" depart="12.40" from="4548199#1" to="10111716#8" type="passenger"/>
    <trip id="125" depart="12.50" from="102730103" to="4744978#0" type="passenger"/>
    <trip id="126" depart="12.60" from="-20448005#2" to="221119204#5" type="passenger"/>
    <trip id="127" depart="12.70" from="990822936#2" to="9788059#1" type="passenger"/>
    <trip id="128" depart="12.80" from="-20448005#4" to="-4865968#2" type="passenger"/>
    <trip id="129" depart="12.90" from="-736817048" to="732295445#4" type="passenger"/>
    <trip id="130" depart="13.00" from="4991182#1" to="4991182#2" type="passenger"/>
    <trip id="131" depart="13.10" from="139718604#1" to="-4548297#0" type="passenger"/>
    <trip id="132" depart="13.20" from="4844447#3" to="4644890#0" type="passenger"/>
    <trip id="133" depart="13.30" from="4494909#7" to="93269806" type="passenger"/>
    <trip id="134" depart="13.40" from="45359120#0" to="-1047548238#0" type="passenger"/>
    <trip id="135" depart="13.50" from="4799419" to="10111716#6" type="passenger"/>
    <trip id="136" depart="13.60" from="45359877#11" to="736368261" type="passenger"/>
    <trip id="137" depart="13.70" from="-4494926#14" to="-4475215#4" type="passenger"/>
    <trip id="138" depart="13.80" from="-380618974#4" to="386617896" type="passenger"/>
    <trip id="139" depart="13.90" from="-77664375#2" to="4494909#2" type="passenger"/>
    <trip id="140" depart="14.00" from="4644898#5" to="-4844455#0" type="passenger"/>
    <trip id="141" depart="14.10" from="45051074#1" to="-77670353" type="passenger"/>
    <trip id="142" depart="14.20" from="24324676#0" to="58648676#5" type="passenger"/>
    <trip id="143" depart="14.30" from="485899794#3" to="-26303872" type="passenger"/>
    <trip id="144" depart="14.40" from="20279753#2" to="-8751310#5" type="passenger"/>
    <trip id="145" depart="14.50" from="-10111716#7" to="4745136#3" type="passenger"/>
    <trip id="146" depart="14.60" from="45073628#1" to="-77669321" type="passenger"/>
    <trip id="147" depart="14.70" from="4717600#3" to="384218087" type="passenger"/>
    <trip id="148" depart="14.80" from="20279759#2" to="-1088915061" type="passenger"/>
    <trip id="149" depart="14.90" from="-20466083#0" to="4991184#1" type="passenger"/>
    <trip id="150" depart="15.00" from="58169416" to="384186900" type="passenger"/>
    <trip id="151" depart="15.10" from="4844449#2" to="4296031#6" type="passenger"/>
    <trip id="152" depart="15.20" from="-4521152#0" to="-4494926#13" type="passenger"/>
    <trip id="153" depart="15.30" from="10111716#1" to="581608796#1" type="passenger"/>
    <trip id="154" depart="15.40" from="4764320#1" to="4904140#1" type="passenger"/>
    <trip id="155" depart="15.50" from="581608793" to="-485899794#2" type="passenger"/>
    <trip id="156" depart="15.60" from="-581608796#1" to="-384186891#0" type="passenger"/>
    <trip id="157" depart="15.70" from="4750190#0" to="5171322#0" type="passenger"/>
    <trip id="158" depart="15.80" from="198044382#2" to="4497322#0" type="passenger"/>
    <trip id="159" depart="15.90" from="-45359121#1" to="726172047" type="passenger"/>
    <trip id="160" depart="16.00" from="4904141#2" to="8751896#2" type="passenger"/>
    <trip id="161" depart="16.10" from="4798872" to="4991182#8" type="passenger"/>
    <trip id="162" depart="16.20" from="-122443237#1" to="4717600#1" type="passenger"/>
    <trip id="163" depart="16.30" from="1126700706" to="730447301#1" type="passenger"/>
    <trip id="164" depart="16.40" from="4787473#0" to="4904149#1" type="passenger"/>
    <trip id="165" depart="16.50" from="4798872" to="-8073108#1" type="passenger"/>
    <trip id="166" depart="16.60" from="4764294#2" to="-417415066" type="passenger"/>
    <trip id="167" depart="16.70" from="491305324#1" to="4904139#3" type="passenger"/>
    <trip id="168" depart="16.80" from="-4865970#1" to="4803258" type="passenger"/>
    <trip id="169" depart="16.90" from="221119200#1" to="102058910#0" type="passenger"/>
    <trip id="170" depart="17.00" from="4764319" to="-4904185#1" type="passenger"/>
    <trip id="171" depart="17.10" from="-121929389" to="-4839472#0" type="passenger"/>
    <trip id="172" depart="17.20" from="1097150695#1" to="4904149#1" type="passenger"/>
    <trip id="173" depart="17.30" from="8746401#3" to="-8751896#0" type="passenger"/>
    <trip id="174" depart="17.40" from="45073629#5" to="198044386#0" type="passenger"/>
    <trip id="175" depart="17.50" from="894003182#1" to="382336253#0" type="passenger"/>
    <trip id="176" depart="17.60" from="736817048" to="-4475215#4" type="passenger"/>
    <trip id="177" depart="17.70" from="8746407#1" to="-4745073#4" type="passenger"/>
    <trip id="178" depart="17.80" from="83607382#6" to="-78413631" type="passenger"/>
    <trip id="179" depart="17.90" from="-384186891#0" to="20466083#1" type="passenger"/>
    <trip id="180" depart="18.00" from="4683301#2" to="1088915061" type="passenger"/>
    <trip id="181" depart="18.10" from="4483894#0" to="28891695#2" type="passenger"/>
    <trip id="182" depart="18.20" from="156536765" to="425184482#0" type="passenger"/>
    <trip id="183" depart="18.30" from="-59738303" to="4644896#2" type="passenger"/>
    <trip id="184" depart="18.40" from="-10111716#3" to="69067230" type="passenger"/>
    <trip id="185" depart="18.50" from="380808600#1" to="4677319#0" type="passenger"/>
    <trip id="186" depart="18.60" from="4717602#0" to="4548209#1" type="passenger"/>
    <trip id="187" depart="18.70" from="133634468" to="-20448005#6" type="passenger"/>
    <trip id="188" depart="18.80" from="45359877#13" to="1136445710#4" type="passenger"/>
    <trip id="189" depart="18.90" from="102058907" to="4865968#0" type="passenger"/>
    <trip id="190" depart="19.00" from="4644902#2" to="10111717" type="passenger"/>
    <trip id="191" depart="19.10" from="10111716#3" to="201700816" type="passenger"/>
    <trip id="192" depart="19.20" from="196934179#8" to="1003917173" type="passenger"/>
    <trip id="193" depart="19.30" from="-4494913#1" to="20279759#4" type="passenger"/>
    <trip id="194" depart="19.40" from="744562460" to="45569652" type="passenger"/>
    <trip id="195" depart="19.50" from="581609404#7" to="4494926#0" type="passenger"/>
    <trip id="196" depart="19.60" from="-968763898#0" to="384189461" type="passenger"/>
    <trip id="197" depart="19.70" from="-1003917173" to="-958054763" type="passenger"/>
    <trip id="198" depart="19.80" from="20279768#1" to="4296031#0" type="passenger"/>
    <trip id="199" depart="19.90" from="45359120#2" to="226578078#5" type="passenger"/>
    <trip id="200" depart="20.00" from="20466083#1" to="-4865968#3" type="passenger"/>
    <trip id="201" depart="20.10" from="226578079" to="581609404#6" type="passenger"/>
    <trip id="202" depart="20.20" from="4764320#0" to="-4717458" type="passenger"/>
    <trip id="203" depart="20.30" from="-23605430#1" to="28891843#0" type="passenger"/>
    <trip id="204" depart="20.40" from="45051073#0" to="1136445719#2" type="passenger"/>
    <trip id="205" depart="20.50" from="4799563" to="4744977#3" type="passenger"/>
    <trip id="206" depart="20.60" from="4548200#1" to="-4904150#2" type="passenger"/>
    <trip id="207" depart="20.70" from="-4787502#3" to="-122443237#2" type="passenger"/>
    <trip id="208" depart="20.80" from="-4991184#1" to="23605440#0" type="passenger"/>
    <trip id="209" depart="20.90" from="4862621" to="-205819136" type="passenger"/>
    <trip id="210" depart="21.00" from="199863044#2" to="45051074#0" type="passenger"/>
    <trip id="211" depart="21.10" from="-476634672" to="4638062#3" type="passenger"/>
    <trip id="212" depart="21.20" from="25548631#0" to="-595322020#2" type="passenger"/>
    <trip id="213" depart="21.30" from="45359121#0" to="-10111730#1" type="passenger"/>
    <trip id="214" depart="21.40" from="4744975#4" to="4745075#2" type="passenger"/>
    <trip id="215" depart="21.50" from="-380618974#3" to="20279774#0" type="passenger"/>
    <trip id="216" depart="21.60" from="-4696644#2" to="8119016#0" type="passenger"/>
    <trip id="217" depart="21.70" from="28891834#1" to="-202753993#1" type="passenger"/>
    <trip id="218" depart="21.80" from="-581608796#0" to="4865968#0" type="passenger"/>
    <trip id="219" depart="21.90" from="219273311#4" to="4787501#1" type="passenger"/>
    <trip id="220" depart="22.00" from="45360552" to="958054763" type="passenger"/>
    <trip id="221" depart="22.10" from="4470837" to="77670352#1" type="passenger"/>
    <trip id="222" depart="22.20" from="5299005#0" to="4494913#3" type="passenger"/>
    <trip id="223" depart="22.30" from="4644902#1" to="26733953#0" type="passenger"/>
    <trip id="224" depart="22.40" from="4839478#3" to="384189461" type="passenger"/>
    <trip id="225" depart="22.50" from="5730546#0" to="4741295#2" type="passenger"/>
    <trip id="226" depart="22.60" from="226585764#3" to="-77664306#1" type="passenger"/>
    <trip id="227" depart="22.70" from="-553931253" to="45073629#5" type="passenger"/>
    <trip id="228" depart="22.80" from="4745019#8" to="3469491" type="passenger"/>
    <trip id="229" depart="22.90" from="4497326#0" to="-8746407#1" type="passenger"/>
    <trip id="230" depart="23.00" from="-209263579" to="-93269804#5" type="passenger"/>
    <trip id="231" depart="23.10" from="-77664375#0" to="1097150696#0" type="passenger"/>
    <trip id="232" depart="23.20" from="382336253#0" to="-45073976#1" type="passenger"/>
    <trip id="233" depart="23.30" from="-4904141#2" to="4627913#1" type="passenger"/>
    <trip id="234" depart="23.40" from="4644889#1" to="-20279774#0" type="passenger"/>
    <trip id="235" depart="23.50" from="198044386#1" to="384186891#0" type="passenger"/>
    <trip id="236" depart="23.60" from="201700816" to="-4844458#1" type="passenger"/>
    <trip id="237" depart="23.70" from="20279746#2" to="58648676#4" type="passenger"/>
    <trip id="238" depart="23.80" from="4287403" to="4638062#1" type="passenger"/>
    <trip id="239" depart="23.90" from="4876190#0" to="4745047#3" type="passenger"/>
    <trip id="240" depart="24.00" from="144176630#4" to="-10111730#2" type="passenger"/>
    <trip id="241" depart="24.10" from="116370279#2" to="4744978#4" type="passenger"/>
    <trip id="242" depart="24.20" from="4865970#1" to="8073108#1" type="passenger"/>
    <trip id="243" depart="24.30" from="202753993#3" to="4744975#5" type="passenger"/>
    <trip id="244" depart="24.40" from="384186233" to="4483920#0" type="passenger"/>
    <trip id="245" depart="24.50" from="-48610084#2" to="-4904139#5" type="passenger"/>
    <trip id="246" depart="24.60" from="203955671#0" to="-135312836#3" type="passenger"/>
    <trip id="247" depart="24.70" from="1136445707#1" to="45570241" type="passenger"/>
    <trip id="248" depart="24.80" from="198044378#2" to="-4638062#0" type="passenger"/>
    <trip id="249" depart="24.90" from="226151434" to="-4494926#13" type="passenger"/>
    <trip id="250" depart="25.00" from="4494926#14" to="-133634474" type="passenger"/>
    <trip id="251" depart="25.10" from="17980412" to="39891126" type="passenger"/>
    <trip id="252" depart="25.20" from="-133634468" to="45105826#0" type="passenger"/>
    <trip id="253" depart="25.30" from="-4494926#4" to="226152921#0" type="passenger"/>
    <trip id="254" depart="25.40" from="-198044378#3" to="164087238#0" type="passenger"/>
    <trip id="255" depart="25.50" from="-4844455#0" to="1136445706#1" type="passenger"/>
    <trip id="256" depart="25.60" from="4745017#4" to="164087238#0" type="passenger"/>
    <trip id="257" depart="25.70" from="4744975#7" to="4844451#1" type="passenger"/>
    <trip id="258" depart="25.80" from="-58648676#5" to="-23605440#0" type="passenger"/>
    <trip id="259" depart="25.90" from="-116370279#0" to="384185250#0" type="passenger"/>
    <trip id="260" depart="26.00" from="99798486" to="124905887#0" type="passenger"/>
    <trip id="261" depart="26.10" from="4521175#0" to="4763830" type="passenger"/>
    <trip id="262" depart="26.20" from="45358929#0" to="4744978#6" type="passenger"/>
    <trip id="263" depart="26.30" from="77670352#0" to="-4844449#1" type="passenger"/>
    <trip id="264" depart="26.40" from="-116370279#2" to="-45359877#6" type="passenger"/>
    <trip id="265" depart="26.50" from="-4494912#4" to="4548200#3" type="passenger"/>
    <trip id="266" depart="26.60" from="389802135#6" to="-4904139#2" type="passenger"/>
    <trip id="267" depart="26.70" from="4638062#1" to="4745072#2" type="passenger"/>
    <trip id="268" depart="26.80" from="-4548297#6" to="4494909#8" type="passenger"/>
    <trip id="269" depart="26.90" from="4741295#3" to="-4475215#1" type="passenger"/>
    <trip id="270" depart="27.00" from="4799586" to="8746401#1" type="passenger"/>
    <trip id="271" depart="27.10" from="-383167847" to="-131860123#0" type="passenger"/>
    <trip id="272" depart="27.20" from="10111719#2" to="45569652" type="passenger"/>
    <trip id="273" depart="27.30" from="8119016#0" to="198044378#2" type="passenger"/>
    <trip id="274" depart="27.40" from="4644897#3" to="-210429351#1" type="passenger"/>
    <trip id="275" depart="27.50" from="45787318#1" to="45051067#3" type="passenger"/>
    <trip id="276" depart="27.60" from="-28891837#1" to="4745136#8" type="passenger"/>
    <trip id="277" depart="27.70" from="4862622" to="4483893#2" type="passenger"/>
    <trip id="278" depart="27.80" from="-4475215#4" to="93256779#2" type="passenger"/>
    <trip id="279" depart="27.90" from="4750193#4" to="121929413#2" type="passenger"/>
    <trip id="280" depart="28.00" from="20279759#4" to="144176630#2" type="passenger"/>
    <trip id="281" depart="28.10" from="26403933#2" to="115894400#1" type="passenger"/>
    <trip id="282" depart="28.20" from="4862551#2" to="4839473#0" type="passenger"/>
    <trip id="283" depart="28.30" from="-380618974#1" to="83607382#2" type="passenger"/>
    <trip id="284" depart="28.40" from="45051125#0" to="4844447#0" type="passenger"/>
    <trip id="285" depart="28.50" from="4644889#3" to="204790848" type="passenger"/>
    <trip id="286" depart="28.60" from="47168895#1" to="8746401#3" type="passenger"/>
    <trip id="287" depart="28.70" from="-77664306#1" to="4799015" type="passenger"/>
    <trip id="288" depart="28.80" from="380618974#6" to="24375800#0" type="passenger"/>
    <trip id="289" depart="28.90" from="203403883#0" to="47168897#1" type="passenger"/>
    <trip id="290" depart="29.00" from="-77663269#1" to="4869273#2" type="passenger"/>
    <trip id="291" depart="29.10" from="4839478#3" to="-250478229#2" type="passenger"/>
    <trip id="292" depart="29.20" from="4991182#3" to="-595322020#2" type="passenger"/>
    <trip id="293" depart="29.30" from="221119204#4" to="4494913#0" type="passenger"/>
    <trip id="294" depart="29.40" from="144176630#1" to="-135312836#3" type="passenger"/>
    <trip id="295" depart="29.50" from="4865966" to="-4750193#0" type="passenger"/>
    <trip id="296" depart="29.60" from="-4844455#3" to="4787455#1" type="passenger"/>
    <trip id="297" depart="29.70" from="1136445712#1" to="4991182#4" type="passenger"/>
    <trip id="298" depart="29.80" from="4642302#0" to="-8751310#4" type="passenger"/>
    <trip id="299" depart="29.90" from="-1047548238#1" to="77664375#3" type="passenger"/>
    <trip id="300" depart="30.00" from="-23605431#0" to="4677319#1" type="passenger"/>
    <trip id="301" depart="30.10" from="24324676#0" to="4745018#1" type="passenger"/>
    <trip id="302" depart="30.20" from="45787318#1" to="4521175#0" type="passenger"/>
    <trip id="303" depart="30.30" from="250478229#1" to="4764321" type="passenger"/>
    <trip id="304" depart="30.40" from="-25548629#2" to="-4904141#1" type="passenger"/>
    <trip id="305" depart="30.50" from="45886019#0" to="102147604#1" type="passenger"/>
    <trip id="306" depart="30.60" from="42796907#1" to="23605430#2" type="passenger"/>
    <trip id="307" depart="30.70" from="380098110#1" to="20279774#1" type="passenger"/>
    <trip id="308" depart="30.80" from="4741295#0" to="1136445711" type="passenger"/>
    <trip id="309" depart="30.90" from="4642304#0" to="-83607382#5" type="passenger"/>
    <trip id="310" depart="31.00" from="-58648676#3" to="-4494913#0" type="passenger"/>
    <trip id="311" depart="31.10" from="-4764318#0" to="-4494912#3" type="passenger"/>
    <trip id="312" depart="31.20" from="380618974#1" to="4745019#8" type="passenger"/>
    <trip id="313" depart="31.30" from="-4745073#0" to="-4903953#0" type="passenger"/>
    <trip id="314" depart="31.40" from="23706690" to="4683301#2" type="passenger"/>
    <trip id="315" depart="31.50" from="8751896#2" to="368520680" type="passenger"/>
    <trip id="316" depart="31.60" from="-8746402" to="-380618974#3" type="passenger"/>
    <trip id="317" depart="31.70" from="-476634672" to="-4904185#1" type="passenger"/>
    <trip id="318" depart="31.80" from="-4717602#0" to="-1136445706#0" type="passenger"/>
    <trip id="319" depart="31.90" from="380618971#1" to="-8746407#0" type="passenger"/>
    <trip id="320" depart="32.00" from="8751893#0" to="386617896" type="passenger"/>
    <trip id="321" depart="32.10" from="4627913#0" to="-4494926#1" type="passenger"/>
    <trip id="322" depart="32.20" from="4904182#2" to="25739953#0" type="passenger"/>
    <trip id="323" depart="32.30" from="491305324#2" to="41863459#0" type="passenger"/>
    <trip id="324" depart="32.40" from="226152921#1" to="205820315" type="passenger"/>
    <trip id="325" depart="32.50" from="-4745072#1" to="-20279746#0" type="passenger"/>
    <trip id="326" depart="32.60" from="745391452" to="23706686#0" type="passenger"/>
    <trip id="327" depart="32.70" from="4803260" to="198642279#1" type="passenger"/>
    <trip id="328" depart="32.80" from="-20448005#7" to="45051073#1" type="passenger"/>
    <trip id="329" depart="32.90" from="-202753993#2" to="-45359877#10" type="passenger"/>
    <trip id="330" depart="33.00" from="389802135#3" to="10111730#2" type="passenger"/>
    <trip id="331" depart="33.10" from="9702627" to="-4494912#1" type="passenger"/>
    <trip id="332" depart="33.20" from="4745019#5" to="4494909#6" type="passenger"/>
    <trip id="333" depart="33.30" from="4764309#1" to="-4904182#1" type="passenger"/>
    <trip id="334" depart="33.40" from="32410" to="221112625#1" type="passenger"/>
    <trip id="335" depart="33.50" from="20466088" to="4904140#0" type="passenger"/>
    <trip id="336" depart="33.60" from="96646975#2" to="102058910#1" type="passenger"/>
    <trip id="337" depart="33.70" from="4494926#10" to="4494912#5" type="passenger"/>
    <trip id="338" depart="33.80" from="4717600#0" to="77664375#2" type="passenger"/>
    <trip id="339" depart="33.90" from="-4844449#2" to="-48610084#0" type="passenger"/>