<?xml version="1.0" encoding="UTF-8"?>

<!-- generated on 2023-05-30 14:58:18.973156 by randomTrips.py v1_17_0+0000-737931d58da
<configuration>
    <net-file value="glasgow.net.xml"/>
    <output-trip-file value="passenger_trips.xml"/>
    <route-file value="passenger_routes.rou.xml"/>
    <trip-attributes value="color=&quot;255,255,255&quot;"/>
    <end value="600"/>
    <vehicle-class value="passenger"/>
    <period value="0.1"/>
</configuration>
-->

<!-- generated on 2023-05-30 14:58:15 by Eclipse SUMO duarouter Version 1.17.0
<configuration xmlns:xsi="http://www.w3.org/2001/XMLSchema-instance" xsi:noNamespaceSchemaLocation="http://sumo.dlr.de/xsd/duarouterConfiguration.xsd">

    <input>
        <net-file value="glasgow.net.xml"/>
        <route-files value="passenger_trips.xml"/>
    </input>

    <output>
        <output-file value="passenger_routes.rou.xml"/>
        <alternatives-output value="NUL"/>
    </output>

    <time>
        <begin value="0"/>
        <end value="600"/>
    </time>

    <report>
        <no-warnings value="true"/>
        <ignore-errors value="true"/>
        <no-step-log value="true"/>
    </report>

</configuration>
-->

<routes xmlns:xsi="http://www.w3.org/2001/XMLSchema-instance" xsi:noNamespaceSchemaLocation="http://sumo.dlr.de/xsd/routes_file.xsd">
    <vType id="passenger" vClass="passenger" color="white"/>
    <vehicle id="pass0" type="passenger" depart="0.00">
        <route edges="45073628#6 4839472#0 4839472#1 -210429351#1 -210429351#0 -384212608#3 -384212608#2 198642284#0 198642284#1 198642284#2 198642284#3 43847349#2 1136445715 1136445706#0 1136445706#1 209263690#0 209263690#1 209263690#2 209263690#3 417313760#0 42796907#0 42796907#1 45051073#0 45051073#1 198044382#0 198044382#1 198044382#2 198044382#3 42796910#0 42796910#1 42796910#2 42796910#3 4497326#0 4497326#1 4497326#2 4567177 527034495 144176629 151952407 735349188 735349186 4642304#0 4642304#1 4642304#2 4642304#3 125068105 -125068105"/>
    </vehicle>
    <vehicle id="pass1" type="passenger" depart="0.10">
        <route edges="-77670352#1 77670352#1 1089451382#1 1089451382#2 83607382#2 83607382#3 83607382#5 83607382#6 83607382#8 4741291#0 4741291#1 4494913#0 4494913#1 4494913#2 4494913#3 4494913#4 4494913#5 4494913#6 4494913#7 4494913#8 4494913#9 4494913#10 4494913#11 4494913#12 685023881#0 685023881#1 685023881#3 4475203#0 1097150695#1 1097150695#2 156536760#1 156536760#2 1103822695 4839479#0 4839479#1 1103822694 4839480 143784299 4839475 4981569 159408203 -476634672 -4904185#1 -4904185#0 -4904139#6 -4904139#5 -4904139#4 -4904139#3 -4904139#2 -4904139#1 -4904139#0 -45359120#0 4904149#1 4904149#2 4904149#3 968763898#0 968763898#1 45359065#0 45359065#1 -45359065#1 -45359065#0 -968763898#1 -968763898#0 -4904149#3 -4904149#2 -4904149#1"/>
    </vehicle>
    <vehicle id="pass2" type="passenger" depart="0.20">
        <route edges="4717459#2 4717458 28072796#1 28072796#2 28072796#3 4296031#10 69067200 736368261 736368260 4296033 93230126#0 93230126#1 93230126#2 226152921#0 226152921#1 226150745 152135172 102730103 4345002#0 4345002#1 3469493 579403732 579403734 4470835 1801 1126700706 124452933 24324609 45494754"/>
    </vehicle>
    <vehicle id="pass3" type="passenger" depart="0.30">
        <route edges="53804609#0 10111717 -10111717 -53804609#0 -10111716#8 -10111716#7 -10111716#6 -10111716#5 -10111716#4 -10111716#3 -10111716#2 -10111716#1 -10111716#0 10111714#0 10111714#1 4741295#6 4741295#7 4741295#8 4741295#9 4741295#10 4741295#11 9788059#1 9788059#2 11339912#0 11339912#1 47171927#0 12796510 35066914#0 4642304#0 4642304#1 4642304#2 4642304#3 721037390 4642302#0 4642302#1 4642302#2 4642302#3 201700816 26403933#2 45073934 26403934#0 26403934#1 26403934#2 26403934#3 143769307#0 143769307#1 45049554#0 45049554#1 45051074#0 45051074#1 144176630#0 144176630#1 144176630#2 144176630#3 144176630#4 45886019#0 45886019#1 1047548239#1 164500951 1136445712#0 1136445712#1 1136445712#2 1136445714 219273311#0 219273311#1 219273311#3 219273311#4 384212608#2 384212608#3 210429351#0 210429351#1 20279746#0 20279746#1 20279746#2 20279746#3 26303872 732295445#0 732295445#1 732295445#2 732295445#3 732295445#4 732295445#5 732295445#6 732295445#7 20279748 20279749 250478229#0 250478229#1 250478229#2 250478229#4 250478229#5 1039370199 -1039370199 -250478229#5 -250478229#4"/>
    </vehicle>
    <vehicle id="pass6" type="passenger" depart="0.60">
        <route edges="-131860123#1 131860123#1 203955671#0 90682376 205819136 39891023#0 39891023#1 39891023#2 39891023#3 389802134#3 151952408 735349187 735349189 4548443#1 380618972 -730447301#1 -730447301#0 -380618974#6 -380618974#5 -380618974#4 -380618974#3 -380618974#2 -380618974#1 -380618974#0 380618971#0 380618971#1 386617897 4760219 386617898#0 386617898#1 262604451 206317573 1089451382#0 1089451382#1 1089451382#2 83607382#2 83607382#3 83607382#5 83607382#6 83607382#8 4741291#0 983637050#0 983637050#1 983637050#2 4677446#0 4677446#1 -172206441 -58648676#7 4844447#0 4844447#1 4844447#2 4844447#3 4844447#4 -4844447#4 -4844447#3"/>
    </vehicle>
    <vehicle id="pass8" type="passenger" depart="0.80">
        <route edges="-48610084#2 -48610084#1 -48610084#0 -121017977 -121017976 -8746407#1 -8746407#0 -8746405#0 8746406#0 8746406#1 412176638 581609404#0 581609404#1 581609404#2 205819137#5 205819137#6 221119204#0 221119204#1 4573820#1 221112638 45049553 203403883#0 143769303 4483892#0 4483892#1 4483892#2 381215016 4483893#0 4483893#2 4483893#3 4483893#4 45051085 4397805"/>
    </vehicle>
    <vehicle id="pass9" type="passenger" depart="0.90">
        <route edges="478853369 -22731338 202753580 -250478226 -20279749 -20279748 -732295445#7 -732295445#6 -732295445#5 -732295445#4 -732295445#3 -732295445#2 -732295445#1 -732295445#0 -26303872 -20279746#3 -20279746#2 -20279746#1 -20279746#0 -210429351#1 -210429351#0 -45051111#1 -45051111#0 28380058#0 28380058#1 28380058#2 185136473 185136472 45074530 4497320 4397805 4521153#0 4521153#1 4521153#2 1088915061 4981556#0 4981556#1 4981556#3 4981556#4 -1089452022#0 -47168895#1 -47168895#0 -4494913#5 -4494913#4 -4494913#3 -4494913#2 -4494913#1 -4494913#0 595233510 983637050#0 983637050#1 983637050#2 8119016#0 8119016#1 114002811#0 114002811#1 114002811#2 156536765 -28891695#2 102147604#0 102147604#1 -102147604#1 -102147604#0"/>
    </vehicle>
    <vehicle id="pass10" type="passenger" depart="1.00">
        <route edges="4787501#1 4542288 4778497 45074531 745391452 114324471 4627829#0 4627829#1 417313760#0 42796907#0 42796907#1 45051073#0 45051073#1 198044382#0 198044382#1 198044382#2 198044382#3 42796910#0 42796910#1 42796910#2 42796910#3 4497326#0 4497326#1 4497326#2 26403932 4953267#0 4953267#1 4953265 4642302#0 4642302#1 4642302#2 4642302#3"/>
    </vehicle>
    <vehicle id="pass11" type="passenger" depart="1.10">
        <route edges="1136445712#1 1136445712#2 1136445714 219273311#0 219273311#1 219273311#3 219273311#4 384212608#2 384212608#3 -45051111#1 -45051111#0 28380058#0 28380058#1 28380058#2 185136473 185136472 45074530 4497320 4397805 4521153#0 4521153#1 4521153#2 1088915061 4981556#0 4981556#1 4981556#3 4981556#4 -1089452022#0 -47168895#1 -47168895#0 -4494913#5 -4494913#4 -4494913#3 -4494913#2 -4494913#1 -4494913#0 595233510 983637050#0 983637050#1 983637050#2 8119016#0 8119016#1 114002811#0 114002811#1 114002811#2 156536765 -28891695#2 102147604#0 102147604#1 -4548199#2"/>
    </vehicle>
    <vehicle id="pass12" type="passenger" depart="1.20">
        <route edges="8073926#3 8073926#4 -114001660#2 -114001660#1 114001660#1 114001660#2"/>
    </vehicle>
    <vehicle id="pass13" type="passenger" depart="1.30">
        <route edges="-25548629#1 -25548629#0 4296031#6 4296031#7 262604454#1 257885007 257885008#0 69067217#5 69067217#6 69067217#7 69067217#8 4764309#0 4764309#1 23802762 8751900#1 8751900#2 8751900#3 131860123#0 131860123#1 203955671#0 90682376 205819136 39891023#0 39891023#1 39891023#2 39891023#3 389802134#3 151952408 735349187 735349189 4548443#1 380618972 -730447301#1 -730447301#0 -380618974#6 -380618974#5 -380618974#4 -380618974#3 -380618974#2 -380618974#1 -380618974#0 380618971#0 380618971#1 386617897 4760219 386617898#0 386617898#1 262604451 206317573 1089451382#0 1089451382#1 1089451382#2 8073925#0 8073925#1 8073925#2 8073926#3 8073926#4 -114001660#2 -114001660#1 28891837#0 28891837#1 -28891837#1 -28891837#0"/>
    </vehicle>
    <vehicle id="pass14" type="passenger" depart="1.40">
        <route edges="48610084#1 48610084#2 -48610084#2 -48610084#1 -48610084#0 -121017977 -121017976 -8746407#1 -8746407#0 -8746405#0 8746406#0 8746406#1 412176638 581609404#0 581609404#1 581609404#2 205819137#5 205819137#6 221119204#0 221119204#1 4573820#1 221112638 45049553 203403883#0 -143769304#1 -143769304#0 -4483920#1 -4483920#0 4483920#0 4483920#1"/>
    </vehicle>
    <vehicle id="pass15" type="passenger" depart="1.50">
        <route edges="4787503 45074531 745391452 114324471 4627829#0 4627829#1 4483920#0 4483920#1 143769304#0 143769304#1 143769303 4483892#0 4483892#1 4483892#2 381215016 4483893#0 4483893#2 4483893#3 4483893#4 45051085 4397805 4521153#0 4521153#1 4521153#2 1088915061 4981556#0 4981556#1 4981556#3 4981556#4 -1089452022#0 -47168895#1 -47168895#0 47168895#0"/>
    </vehicle>
    <vehicle id="pass16" type="passenger" depart="1.60">
        <route edges="380618974#2 380618974#3 380618974#4 380618974#5 380618974#6 730447301#0 730447301#1 380618973#0 151952407 735349188 735349186 380808600#1 995103496 588506827 466695357#0 466695357#1 466695357#2 389802136 389802137 203957021#1 203957021#2 8751896#0 8751890#0"/>
    </vehicle>
    <vehicle id="pass17" type="passenger" depart="1.70">
        <route edges="144176630#0 144176630#1 144176630#2 144176630#3 144176630#4 45886019#0 45886019#1 1047548239#1 164500951 45359295#0 45359295#1 45359295#2 45359713 45359292#0 4904139#3 4904139#4 4904139#5 4904139#6 45773042#0 45773048 45787305 383167848 32410 1126700706 159409664 55668653 384218087 384218090"/>
    </vehicle>
    <vehicle id="pass18" type="passenger" depart="1.80">
        <route edges="4839476 330121113 59738304#1 833743727#0 833743727#1 24324676#0 24324676#1 -156536760#2 -156536760#1 -1097150695#2 -1097150695#1 -4475203#0 -685023881#3 -685023881#1 -685023881#0 -4494913#12 -4494913#11 -4494913#10 -4494913#9 -4494913#8 -4494913#7 -4494913#6 -4494913#5 -4494913#4 -4494913#3 -4494913#2 -4494913#1 -4494913#0 595233510 983637050#0 983637050#1 983637050#2 8119016#0 8119016#1 4494926#0 4494926#1 4494926#2"/>
    </vehicle>
    <vehicle id="pass19" type="passenger" depart="1.90">
        <route edges="4904139#4 4904139#5 4904139#6 -4904139#6 -4904139#5 -4904139#4 -4904139#3 1136445708#0 1136445708#1 1136445719#0 1136445719#1 1136445719#2 1136445717#0 1136445717#1 1136445715 1136445706#0 1136445706#1 209263690#0 209263690#1 209263690#2 209263690#3 417313760#0 42796907#0 42796907#1"/>
    </vehicle>
    <vehicle id="pass20" type="passenger" depart="2.00">
        <route edges="4644888#0 4644888#1 4644892 198044386#0 198044386#1 46549966#0 46549966#1 4573820#0 4573820#1 221112635#0 221112635#1 45051067#0 45051067#1 45051067#2 45051067#3 45051068#0 45051068#1 45051068#2 202744706#0 202744706#1 202744706#2 39891023#0 39891023#1 39891023#2 39891023#3 389802134#3 151952408 735349187 735349189 4548443#1 380618972 -730447301#1 -730447301#0 4862551#0 4862551#1 4862551#2 4717600#0 4717600#1 4717600#2 116370208 4717602#0 4717602#1 4717602#2 4717602#3 197572274 -197572274"/>
    </vehicle>
    <vehicle id="pass21" type="passenger" depart="2.10">
        <route edges="-4904139#4 4904139#4 4904139#5 4904139#6 45773042#0 45773048 45787305 383167848 32410 1126700706 159409664 55668653 384218087 384218090 384218092#1 55668655#0 55668655#1 -706496749#2 -706496749#1 -706496749#0 239811653 164500948#0 164500948#1 1103822693 -156536760#2 -156536760#1 -1097150695#2 -1097150695#1 -4475203#0 -96646976#1"/>
    </vehicle>
    <vehicle id="pass23" type="passenger" depart="2.30">
        <route edges="-28891834#3 -28891834#2 -28891834#1 28891696 491305324#0 491305324#1 491305324#2 162901771#0 -83607382#8 -83607382#6 -83607382#5 -83607382#3 -83607382#2 -83607382#1 -83607382#0 -595322020#2 -595322020#1 -595322020#0 4596880#0 4596880#1 4596880#2 595322016 380618974#0 380618974#1 380618974#2 380618974#3 380618974#4 380618974#5 380618974#6 730447301#0 730447301#1 380618973#0 151952407 735349188 735349186 380808600#1 995103496 588506827 466695357#0 466695357#1 466695357#2 389802136 389802137 8751893#0 -8751890#1"/>
    </vehicle>
    <vehicle id="pass24" type="passenger" depart="2.40">
        <route edges="45051125#0 45051125#1 45051125#2 4570715 199863044#0 199863044#1 199863044#2 209263691#0 209263691#2 209263691#3 209263691#4 209263690#0 209263690#1 209263690#2 209263690#3 4483920#0 4483920#1 143769304#0 143769304#1 143769306#1 143769306#2 143769306#4"/>
    </vehicle>
    <vehicle id="pass26" type="passenger" depart="2.60">
        <route edges="-77658164#0 -58648676#3 4494913#3 4494913#4 4494913#5 4494913#6 4494913#7 4494913#8 4494913#9 4494913#10 4494913#11 4494913#12 685023881#0 685023881#1 685023881#3 4475203#0 1097150695#1 1097150695#2 156536760#1 156536760#2 1103822695 4839479#0 4839479#1 1103822694 4839480 143784299 4839475 4470836 4470837 3469492#0 3469492#1 4345003 23814109 4799586 4829958 4799587 4799589 4764357#0 4764321 69067221#0 69067221#1 69067221#2 4764308 69067210 736368178"/>
    </vehicle>
    <vehicle id="pass27" type="passenger" depart="2.70">
        <route edges="4521152#2 -4494913#12 -4494913#11 -4494913#10 -4494913#9 -4494913#8 -4494913#7 -4494913#6 -4494913#5 -4494913#4 -4494913#3 -4494913#2 -4494913#1 -4494913#0 595233510 4741290 12682521 -4494912#5 -4494912#4 -4494912#3 -4494912#2 -4494912#1 4494912#1 4494912#2 4494912#3"/>
    </vehicle>
    <vehicle id="pass28" type="passenger" depart="2.80">
        <route edges="-4627829#0 -114324471 -745391452 -45074531 45074531 745391452 114324471 4627829#0 4627829#1 4483920#0 4483920#1 143769304#0 143769304#1 143769303 4483892#0 4483892#1 4483892#2 381215016 4483893#0 4483893#2 4483893#3 4483893#4 45051085 4397805 4521153#0 4521153#1 4521153#2 1088915061 4981556#0 4981556#1 4981556#3 4981556#4 -1089452022#0 -47168895#1 -47168895#0 -4494913#5 -4494913#4 -4494913#3 -4494913#2 -4494913#1 -4494913#0 595233510 983637050#0 983637050#1 983637050#2 8119016#0 8119016#1 114002811#0 114002811#1 114002811#2 156536765 -28891695#2 102147604#0 102147604#1 4713057#0"/>
    </vehicle>
    <vehicle id="pass30" type="passenger" depart="3.00">
        <route edges="96646975#1 96646975#2 -96646975#2 -96646975#1 -96646975#0 -4839478#3 -4839478#2 -4839478#0 24324676#0 24324676#1 -156536760#2 -156536760#1 -1097150695#2 -1097150695#1 -4475203#0 -685023881#3 -685023881#1 -685023881#0 -4494913#12 -4494913#11 -4494913#10 -4494913#9 -4494913#8 -4494913#7 -4494913#6 -4494913#5 -4494913#4 -4494913#3 -4494913#2 -4494913#1 -4494913#0 595233510 4741290 12682521 5730546#0 5730546#1 4548209#2 4548209#3 4980164 45073977#0"/>
    </vehicle>
    <vehicle id="pass31" type="passenger" depart="3.10">
        <route edges="384218092#1 55668655#0 55668655#1 -706496749#2 -706496749#1 -706496749#0 239811653 164500948#0 115894396#0 115894396#1 115894396#2 1103822694 4839480 143784299 4839475 4981569 199863045 3469491 45785312#0 45787318#0 45787318#1 45773048 45787305"/>
    </vehicle>
    <vehicle id="pass32" type="passenger" depart="3.20">
        <route edges="4844458#2 4844458#3 -4844458#3 -4844458#2 -4844458#1 -4844458#0 -25739953#1 -25739953#0 725686376#1 4844456 -102147604#1 -102147604#0 28891695#2 28891696 491305324#0 491305324#1 491305324#2 162901771#0 12682521 -4494912#5 -4494912#4 -4494912#3 -4494912#2 -4494912#1 58169415 -417415067 -4787455#1 -4787455#0 -198969727#1 -4683299 143769308#0 143769308#1 204790848 4953268#0 4953268#1 4953268#2 4764294#0 4764294#1 4764294#2 45886022 143769305 45051066 221119203#0 221119203#1 221119203#2 221119202#0 667703294 4644889#1 4644889#2 4750191#0 4750191#1 4750189#1 4750189#2 4750189#3 4750189#4"/>
    </vehicle>
    <vehicle id="pass33" type="passenger" depart="3.30">
        <route edges="-4904140#0 4904140#0 -4904139#3 1136445708#0 1136445708#1 1136445719#0 1136445719#1 1136445719#2 1136445717#0 1136445717#1 1136445715 1136445706#0 1136445706#1 209263690#0 209263690#1 209263690#2 209263690#3 4483920#0 4483920#1 143769304#0 143769304#1 143769306#1 143769306#2 143769306#4 -143769306#4 -143769306#2 -143769306#1"/>
    </vehicle>
    <vehicle id="pass34" type="passenger" depart="3.40">
        <route edges="102147604#0 102147604#1 4713057#0 4713057#2 114001660#0 114001660#1 114001660#2 45105826#0 45105826#1 -595322020#2 -595322020#1 -595322020#0 4596880#0 4596880#1 4596880#2 595322016 380618974#0 380618974#1 380618974#2 380618974#3 380618974#4 380618974#5 380618974#6 730447301#0 730447301#1 380618973#0 9395410#1 4521175#0 8073923#0 -8073923#0"/>
    </vehicle>
    <vehicle id="pass35" type="passenger" depart="3.50">
        <route edges="-4844454#2 -4844454#1 -4844454#0 -172206437#5 -172206437#4 -172206437#2 -172206437#1 -172206437#0 -172206441 -58648676#7 -58648676#6 -58648676#5 -58648676#4 77658164#0 77658164#1"/>
    </vehicle>
    <vehicle id="pass36" type="passenger" depart="3.60">
        <route edges="4981556#1 4981556#3 4981556#4 -1089452022#0 -47168895#1 -47168895#0 -4494913#5 -4494913#4 -4494913#3 -4494913#2 -4494913#1 -4494913#0 595233510 4741290 -83607382#8 -83607382#6 -83607382#5 -83607382#3 -83607382#2 -83607382#1 -83607382#0 4991175#0 4991175#1 28891919#1 28891919#2 1089451382#0 1089451382#1 1089451382#2"/>
    </vehicle>
    <vehicle id="pass37" type="passenger" depart="3.70">
        <route edges="45359120#3 45359120#4 -45359120#4 -45359120#3 -45359120#2 -45359120#1 4904139#0 4904139#1 4904139#2 1136445708#0 1136445708#1 1136445719#0 1136445719#1 1136445719#2 219273311#0 219273311#1 219273311#3 219273311#4 384212608#2 384212608#3 -45051111#1 -45051111#0 28380058#0 28380058#1 28380058#2 4628076 196934179#0 196934179#1 196934179#2 196934179#3 196934179#6 196934179#7 196934179#8 196934179#9"/>
    </vehicle>
    <vehicle id="pass38" type="passenger" depart="3.80">
        <route edges="655636411 206317572 -206317572 -99798486 4494912#0 4494912#1 4494912#2 4494912#3 4494912#4 4494912#5 -4638062#4 -4638062#3 -4638062#2 22287197 22287200#0"/>
    </vehicle>
    <vehicle id="pass39" type="passenger" depart="3.90">
        <route edges="-736817048 -115418036 -964670164 -45073976#3 -45073976#2 -45073976#1 -45073976#0 206317572 -206317572 -99798486 4494912#0 4494912#1 4494912#2 4494912#3 4494912#4 4494912#5 37943342#0 37943342#1 4741291#1 4494913#0 4494913#1 4494913#2 4494913#3 4494913#4 4494913#5 4494913#6 4494913#7 4494913#8 4494913#9 4494913#10 4494913#11 4494913#12 685023881#0 685023881#1 685023881#3 -685023881#3"/>
    </vehicle>
    <vehicle id="pass40" type="passenger" depart="4.00">
        <route edges="389802134#1 389802134#2 389802134#3 151952408 735349187 735349189 4548443#1 380618972 -730447301#1 -730447301#0 -380618974#6 -380618974#5 -380618974#4 -380618974#3 -380618974#2 -77670348#1"/>
    </vehicle>
    <vehicle id="pass41" type="passenger" depart="4.10">
        <route edges="4296031#0 4296031#1 4296031#3 4296031#4 4296031#5 4296031#6 4296031#7 262604454#1 257885007 257885008#0 69067217#5 69067217#6 -48610084#2 -48610084#1 -48610084#0 -121017977 -121017976 -8746407#1 -8746407#0 -8746405#0 8746406#0 8746406#1 581608794"/>
    </vehicle>
    <vehicle id="pass42" type="passenger" depart="4.20">
        <route edges="196934179#10 196934179#11 196934179#12 -164500952#1 -164500952#0 -833743727#1 -833743727#0 -59738304#1 4839480 143784299 4839475 4981569 159408203 -476634672 -4904185#1 -4904185#0 -4904139#6 -4904139#5"/>
    </vehicle>
    <vehicle id="pass43" type="passenger" depart="4.30">
        <route edges="983637050#1 983637050#2 4677446#0 4677446#1 -172206441 -58648676#7 -58648676#6 -58648676#5 -58648676#4 -58648676#3 -58648676#2 -58648676#1 -58648676#0 -4638062#3 -4638062#2 -4638062#1 -4638062#0 1089452022#2 1089452022#3 1089452022#4 1089452022#5 4745074 4683301#0 4683301#1 4683301#2 4683301#3 4683301#4 143769308#0 143769308#1 204790848 4953268#0 4953268#1 4953268#2 4764294#0 4764294#1 4764294#2 42796910#0 42796910#1 42796910#2 42796910#3 4497326#0 4497326#1 4497326#2 4474113#0 4474113#1 28776351#1"/>
    </vehicle>
    <vehicle id="pass44" type="passenger" depart="4.40">
        <route edges="-250478229#2 -250478229#1 -250478229#0 -20279843 -250478226 -20279749 -20279748 -732295445#7 -732295445#6 -732295445#5 -732295445#4 -732295445#3 -732295445#2 -732295445#1 -732295445#0 -26303872 -20279746#3 -20279746#2 -20279746#1 -20279746#0 -210429351#1 -210429351#0 -45051111#1 -45051111#0 28380058#0 28380058#1 28380058#2 185136473 185136472 45074530 4497320 4397805 4521153#0 4521153#1 4521153#2 20448023 990894174 -4745074 -198044378#4"/>
    </vehicle>
    <vehicle id="pass45" type="passenger" depart="4.50">
        <route edges="-384186891#3 -384186891#2 -384186891#1 -384186891#0 384185250#0 384185250#1 384185250#2 384186897 384186900 430737811 384186903 1047548239#1 164500951 1136445712#0 1136445712#1 1136445712#2 1136445714 1136445717#0 1136445717#1 1136445715 1136445706#0 1136445706#1 209263690#0 209263690#1 209263690#2 209263690#3 417313760#0 42796907#0 42796907#1 45051073#0 45051073#1 198044382#0 198044382#1 198044382#2 198044382#3 45886022 143769305 45051067#0 45051067#1 45051067#2 45051067#3"/>
    </vehicle>
    <vehicle id="pass47" type="passenger" depart="4.70">
        <route edges="-20279759#4 -20279759#3 20279759#3 20279759#4 45073629#0 45073629#2 45073629#3 45073629#4 45073629#5 -96646975#2 -96646975#1 -96646975#0 -4839478#3 -4839478#2 -4839478#0 164500952#0"/>
    </vehicle>
    <vehicle id="pass48" type="passenger" depart="4.80">
        <route edges="9788059#1 9788059#2 11339912#0 11339912#1 47171927#0 12796510 35066914#0 380808600#1 995103496 588506827 466695357#0 466695357#1 466695357#2 389802136 389802137 203957021#1 203957021#2 203957021#3 389802951#0 389802951#1 389802951#2 69067227 4876190#0 4876190#1 4876190#2 4876190#3 4876189 1058909732 4296031#0 4296031#1 4799422 380554725 69067201 736368181 4798872 4798873 4764320#0 4764320#1 417402319 4829972 28379982#0 28379982#1 4696644#0 4764009 4764011 4764012 417402315 124452930 4798879 4764310 736368180 23802711 380554729"/>
    </vehicle>
    <vehicle id="pass49" type="passenger" depart="4.90">
        <route edges="8751310#1 8751310#3 8751310#4 8751310#5 8751310#6 4750193#3 4750193#4 4750193#5 -4798846#1 -4798846#0 4644889#0 4644889#1 4644889#2 4644889#3 198044386#0 198044386#1 4644893#0 4644893#1 4644900#0 4644900#1 221119201 361266045#0 361266045#1 361218133 4644901 5003551#0 198642282 4717559#0 4717559#1 4717559#2 45886019#0 45886019#1 1047548239#1 164500951 45359295#0 45359295#1 45359295#2 45359713 45359292#0 45359292#1 -599966746#1 -599966746#0 4904140#3"/>
    </vehicle>
    <vehicle id="pass50" type="passenger" depart="5.00">
        <route edges="-1089452022#0 1089452022#0 1089452022#2 1089452022#3 4677319#0 4677319#1 4677319#3 4677320#0"/>
    </vehicle>
    <vehicle id="pass51" type="passenger" depart="5.10">
        <route edges="45570240#0 45570240#1 45570240#2 198642283 4706944#0 198642279#0 198642279#1 384210565#0 384210565#1 198642281#0 198642281#1 417627763 25774329#0 25774329#1 45570241 384185252 384185251 384186897 384186900 430737811 45359294#0 45359294#1 4744975#1 4744975#3 4744975#4 4744975#5 226578078#4 226578078#5 382336253#2"/>
    </vehicle>
    <vehicle id="pass52" type="passenger" depart="5.20">
        <route edges="-77647202#1 -77647202#0 77647202#0 77647202#1 131860123#0 131860123#1 203955671#0 90682376 205819136 39891023#0 39891023#1 39891023#2 39891023#3 389802134#3 4642304#0 4642304#1 4642304#2 4642304#3 125068105 125068104 740026609 125068103 527034495 -45074078#1 -45074078#0 45074078#0"/>
    </vehicle>
    <vehicle id="pass53" type="passenger" depart="5.30">
        <route edges="-386618432#1 -386618432#0 172333307#0 172333307#1 386617898#0 386617898#1 262604451 4548200#0 4548200#1 4548200#2 4548200#3 4548200#4 45073977#0 45073977#1 4494912#5 -4638062#4 -4638062#3 -4638062#2 -4638062#1 -4638062#0 -1089452022#0 4745075#0 4745075#1 4745075#2 20466087"/>
    </vehicle>
    <vehicle id="pass55" type="passenger" depart="5.50">
        <route edges="4981556#0 4981556#1 4981556#3 4981556#4 -1089452022#0 -47168895#1 -47168895#0 -4494913#5 -4494913#4 -4494913#3 -4494913#2 -4494913#1 -4494913#0 595233510 4741290 -83607382#8 -83607382#6 -83607382#5 -83607382#3 -83607382#2 -83607382#1 -83607382#0 4991175#0 4991175#1 28891919#1 28891919#2 1089451382#0 -77670352#1 -77670352#0"/>
    </vehicle>
    <vehicle id="pass56" type="passenger" depart="5.60">
        <route edges="257885008#2 -4798846#1 -4798846#0 4644889#0 4644889#1 4644889#2 4644889#3 198044386#0 198044386#1 46549966#0 46549966#1 4573820#0 4573820#1 221112638 45049553 203403883#0 143769303 4483892#0 4483892#1 4483892#2 381215016 4483893#0 4483893#2 4483893#3 4483893#4 45051085 4397805 4521153#0 4521153#1 4521153#2 20448023 990894174 -4745074"/>
    </vehicle>
    <vehicle id="pass57" type="passenger" depart="5.70">
        <route edges="60840346#0 60840346#1 5171324#2 8746401#0 8746401#1 8746401#2 8746401#3 8746401#4 8746401#5 221119202#0 667703294 4644889#1 4644889#2 4750191#0 4750191#1 4750189#1 4750189#2 4750189#3 4750189#4 4750189#5 205820315 205820313 204866197#0 4745019#1 4745019#2 4745019#3 4745019#4 4745019#5 4745019#6 4745019#7 4745019#8 491303421"/>
    </vehicle>
    <vehicle id="pass58" type="passenger" depart="5.80">
        <route edges="-964670164 -45073976#3 -45073976#2 -45073976#1 -45073976#0 206317572 -206317572 45073976#0 45073976#1"/>
    </vehicle>
    <vehicle id="pass59" type="passenger" depart="5.90">
        <route edges="4494909#1 4494909#2 4494909#3 4494909#4 4494909#5 4494909#6 4494909#7 4494909#8 47168897#0 47168897#1 204790849 4953268#0 4953268#1 4953268#2 4764294#0 4764294#1 -143769306#4 -143769306#2 -143769306#1 -143769304#1 -143769304#0 -4483920#1 -4483920#0 -209263690#3 -209263690#2 -209263690#1 -209263690#0 -1136445706#1 -1136445706#0 4827884#0 4827884#1 4827884#2 1136445711 1136445714 219273311#0 219273311#1 219273311#3 219273311#4 384212608#2 384212608#3 210429351#0 210429351#1 20279746#0 20279746#1 20279746#2 20279746#3 26303872 732295445#0 732295445#1 732295445#2 20279755#0 20279755#1 20279755#2 -4839473#2 -4839473#1 -4839473#0 -485899794#4 -485899794#3 -485899794#2 -485899794#1 -485899794#0 -45359877#13 -45359877#12 -45359877#11 -45359877#10 -45359877#9 -45359877#8"/>
    </vehicle>
    <vehicle id="pass60" type="passenger" depart="6.00">
        <route edges="4745018#3 19230512 4744978#5 4744978#6 346359552#0 346359552#1 4744979#0 4744979#2 4744979#3 4744977#0 4744977#1 4744977#2 4744977#3 4744977#4 382336252 382336253#0 4745019#3 4745019#4 4745019#5 4745019#6 4745019#7 4745019#8 -384186891#1 -384186891#0 384185250#0"/>
    </vehicle>
    <vehicle id="pass61" type="passenger" depart="6.10">
        <route edges="4750189#3 4750189#4 4750189#5 205820315 205820313 204866197#0 4644890#0 4644890#1 4644890#2 4644890#3 4750190#1 221119199#0 221119199#1 4644902#0 4644902#1 4644902#2 4644902#3 4644902#4 45051073#0 45051073#1 198044382#0 198044382#1 198044382#2 198044382#3 42796910#0 42796910#1 42796910#2 42796910#3 4497326#0 4497326#1 4497326#2 4567177 527034495 144176629 4548443#1 380618972 -730447301#1 -730447301#0 -380618974#6 -380618974#5 -380618974#4 -380618974#3 -380618974#2 -380618974#1 -380618974#0 380618971#0 380618971#1"/>
    </vehicle>
    <vehicle id="pass62" type="passenger" depart="6.20">
        <route edges="-10111716#0 10111714#0 10111714#1 4741295#6 4741295#7 4741295#8 4741295#9 4741295#10 4741295#11 9788059#1 9788059#2 11339912#0 11339912#1"/>
    </vehicle>
    <vehicle id="pass63" type="passenger" depart="6.30">
        <route edges="-116370279#0 -4475215#7 -4475215#6 -4475215#5 -4475215#4 -4475215#2 -4475215#1 -4475215#0 -4494913#12 -4494913#11 -4494913#10 -4494913#9 -4494913#8 -4494913#7 -4494913#6 -4494913#5 -4494913#4 -4494913#3 -4494913#2 -4494913#1 -4494913#0 595233510 983637050#0 983637050#1 983637050#2 8119016#0 8119016#1 4494926#0 4494926#1 4494926#2 4494926#3 4494926#4 4494926#5 725686376#0"/>
    </vehicle>
    <vehicle id="pass64" type="passenger" depart="6.40">
        <route edges="4991161#2 -4991161#2 4862551#1 4862551#2 4717600#0 4717600#1 4717600#2 116370208 4717602#0 4717602#1 4717602#2 4717602#3 197572274 4717599#0 4717599#1 262604451 206317573 1089451382#0 1089451382#1 1089451382#2 83607382#2 83607382#3 83607382#5 83607382#6 83607382#8 4741291#0 983637050#0 983637050#1 983637050#2 8119016#0 8119016#1 4494926#0 4494926#1 4494926#2 4494926#3 4844451#0 4844451#1"/>
    </vehicle>
    <vehicle id="pass65" type="passenger" depart="6.50">
        <route edges="10111714#1 4741295#6 4741295#7 4741295#8 4741295#9 4741295#10 4741295#11 9788059#1 9788059#2 11339912#0 11339912#1 47171927#0 12796510 35066914#0 4642304#0 4642304#1 4642304#2 4642304#3 721037390 4642302#0 4642302#1 4642302#2 4642302#3 201700816 26403933#2 45073934 26403934#0 26403934#1 26403934#2 26403934#3 143769307#0 143769307#1 45049554#0 45049554#1 45051074#0 45051074#1 144176630#0 144176630#1 144176630#2 144176630#3 144176630#4 45886019#0 45886019#1 1047548239#1 164500951 1136445712#0 1136445712#1 1136445712#2 1136445714 219273311#0 219273311#1 219273311#3 219273311#4 384212608#2 384212608#3 210429351#0 210429351#1 20279746#0 20279746#1 20279770#0 20279770#1 20279770#2 20279770#3 -45073628#3 -45073628#2 -45073628#1 -45073628#0 20279756#0 20279756#1 20279756#2 20279756#3 -20279756#3 -20279756#2"/>
    </vehicle>
    <vehicle id="pass66" type="passenger" depart="6.60">