<?xml version="1.0" encoding="UTF-8"?>

<!-- generated on 2023-05-30 14:58:25.655598 by randomTrips.py v1_17_0+0000-737931d58da
<configuration>
    <net-file value="glasgow.net.xml"/>
    <output-trip-file value="ped_trips.xml"/>
    <route-file value="ped_routes.rou.xml"/>
    <pedestrians value="True"/>
    <end value="600"/>
    <period value="5.0"/>
</configuration>
-->

<routes xmlns:xsi="http://www.w3.org/2001/XMLSchema-instance" xsi:noNamespaceSchemaLocation="http://sumo.dlr.de/xsd/routes_file.xsd">
    <person id="0" depart="0.00">
        <walk from="387378724" to="-116370232"/>
    </person>
    <person id="1" depart="5.00">
        <walk from="-890027141" to="-58649458"/>
    </person>
    <person id="2" depart="10.00">
        <walk from="4589099#4" to="438870186"/>
    </person>
    <person id="3" depart="15.00">
        <walk from="727833916" to="-20466084"/>
    </person>
    <person id="4" depart="20.00">
        <walk from="133917373#2" to="-1175931591#1"/>
    </person>
    <person id="5" depart="25.00">
        <walk from="-55702650" to="20279754"/>
    </person>
    <person id="6" depart="30.00">
        <walk from="-116391676#0" to="-48610132"/>
    </person>
    <person id="7" depart="35.00">
        <walk from="389287227#0" to="23381503"/>
    </person>
    <person id="8" depart="40.00">
        <walk from="-55702653#8" to="28891834#1"/>
    </person>
    <person id="9" depart="45.00">
        <walk from="485899794#2" to="-101519062"/>
    </person>
    <person id="10" depart="50.00">
        <walk from="4844455#3" to="45051124#1"/>
    </person>
    <person id="11" depart="55.00">
        <walk from="1119398512" to="-45073568#1"/>
    </person>
    <person id="12" depart="60.00">
        <walk from="8752620#4" to="1097364300"/>
    </person>
    <person id="13" depart="65.00">
        <walk from="-219832558#1" to="-23605431#1"/>
    </person>
    <person id="14" depart="70.00">
        <walk from="544577573" to="325815768#1"/>
    </person>
    <person id="15" depart="75.00">
        <walk from="4844458#2" to="45570240#2"/>
    </person>
    <person id="16" depart="80.00">
        <walk from="221119204#1" to="894981813"/>
    </person>
    <person id="17" depart="85.00">
        <walk from="116739673#0" to="23605440#1"/>
    </person>
    <person id="18" depart="90.00">
        <walk from="4991161#2" to="380618974#0"/>
    </person>
    <person id="19" depart="95.00">
        <walk from="58650205" to="26303896#1"/>
    </person>
    <person id="20" depart="100.00">
        <walk from="4516523#1" to="-137745894#0"/>
    </person>
    <person id="21" depart="105.00">
        <walk from="-674823016" to="1000108605#0"/>
    </person>
    <person id="22" depart="110.00">
        <walk from="-20279759#3" to="-723812724#1"/>
    </person>
    <person id="23" depart="115.00">
        <walk from="-23862996#4" to="-926668116"/>
    </person>
    <person id="24" depart="120.00">
        <walk from="384212608#3" to="115894395#1"/>
    </person>
    <person id="25" depart="125.00">
        <walk from="116370214#4" to="-4991182#1"/>
    </person>
    <person id="26" depart="130.00">
        <walk from="-8746405#1" to="8073108#1"/>
    </person>
    <person id="27" depart="135.00">
        <walk from="389070156" to="35066914#0"/>
    </person>
    <person id="28" depart="140.00">
        <walk from="-4548297#2" to="45569652"/>
    </person>
    <person id="29" depart="145.00">
        <walk from="-45359120#2" to="1175931567#0"/>
    </person>
    <person id="30" depart="150.00">
        <walk from="977024101#0" to="387404626"/>
    </person>
    <person id="31" depart="155.00">
        <walk from="23802762" to="4494909#1"/>
    </person>
    <person id="32" depart="160.00">
        <walk from="5299007" to="4745043"/>
    </person>
    <person id="33" depart="165.00">
        <walk from="-677579401" to="-119504364"/>
    </person>
    <person id="34" depart="170.00">
        <walk from="102666699" to="-8751310#0"/>
    </person>
    <person id="35" depart="175.00">
        <walk from="-4991183#0" to="827453788"/>
    </person>
    <person id="36" depart="180.00">
        <walk from="706237725#1" to="102666693"/>
    </person>
    <person id="37" depart="185.00">
        <walk from="389402416#2" to="121929411#0"/>
    </person>
    <person id="38" depart="190.00">
        <walk from="744750276" to="167639671#0"/>
    </person>
    <person id="39" depart="195.00">
        <walk from="-83607388#0" to="-736308367#0"/>
    </person>
    <person id="40" depart="200.00">
        <walk from="23863004#2" to="-827453788"/>
    </person>
    <person id="41" depart="205.00">
        <walk from="286810237" to="731204880"/>
    </person>
    <person id="42" depart="210.00">
        <walk from="122719541" to="-55702653#2"/>
    </person>
    <person id="43" depart="215.00">
        <walk from="997592562#2" to="20279762#7"/>
    </person>
    <person id="44" depart="220.00">
        <walk from="-216664507" to="-139585857"/>
    </person>
    <person id="45" depart="225.00">
        <walk from="-26303896#1" to="381212407#3"/>
    </person>
    <person id="46" depart="230.00">
        <walk from="4787454#2" to="133917373#3"/>
    </person>
    <person id="47" depart="235.00">
        <walk from="-185807604#0" to="1175931573#0"/>
    </person>
    <person id="48" depart="240.00">
        <walk from="995103496" to="216664510"/>
    </person>
    <person id="49" depart="245.00">
        <walk from="892574650" to="58648676#4"/>
    </person>
    <person id="50" depart="250.00">
        <walk from="-1061889159" to="45362090#0"/>
    </person>
    <person id="51" depart="255.00">
        <walk from="4475215#7" to="221119204#5"/>
    </person>
    <person id="52" depart="260.00">
        <walk from="-8746405#0" to="387410818#0"/>
    </person>
    <person id="53" depart="265.00">
        <walk from="-28379982#1" to="143769305"/>
    </person>
    <person id="54" depart="270.00">
        <walk from="166140981#1" to="8751893#1"/>
    </person>
    <person id="55" depart="275.00">
        <walk from="691210530" to="-83607382#0"/>
    </person>
    <person id="56" depart="280.00">
        <walk from="200771959#1" to="-4717602#1"/>
    </person>
    <person id="57" depart="285.00">
        <walk from="744750265#0" to="677579393#0"/>
    </person>
    <person id="58" depart="290.00">
        <walk from="101513478#2" to="387362893"/>
    </person>
    <person id="59" depart="295.00">
        <walk from="346359552#1" to="-4494926#2"/>
    </person>
    <person id="60" depart="300.00">
        <walk from="472995218#0" to="225913257"/>
    </person>
    <person id="61" depart="305.00">
        <walk from="4745073#3" to="217363066#2"/>
    </person>
    <person id="62" depart="310.00">
        <walk from="-10111713#1" to="1047583079#1"/>
    </person>
    <person id="63" depart="315.00">
        <walk from="-114721092#5" to="77664306#1"/>
    </person>
    <person id="64" depart="320.00">
        <walk from="707455176" to="4991182#3"/>
    </person>
    <person id="65" depart="325.00">
        <walk from="102152589" to="-172206437#5"/>
    </person>
    <person id="66" depart="330.00">
        <walk from="707455173" to="840062940#1"/>
    </person>
    <person id="67" depart="335.00">
        <walk from="-20450086" to="192671952#0"/>
    </person>
    <person id="68" depart="340.00">
        <walk from="-19080750" to="472995005#0"/>
    </person>
    <person id="69" depart="345.00">
        <walk from="473665067" to="-35467385#0"/>
    </person>
    <person id="70" depart="350.00">
        <walk from="185807604#0" to="23605434#0"/>
    </person>
    <person id="71" depart="355.00">
        <walk from="-83607388#1" to="685023881#3"/>
    </person>
    <person id="72" depart="360.00">
        <walk from="13444211#0" to="-5137046#0"/>
    </person>
    <person id="73" depart="365.00">
        <walk from="225913257" to="45570241"/>
    </person>
    <person id="74" depart="370.00">
        <walk from="-489409930" to="102638024"/>
    </person>
    <person id="75" depart="375.00">
        <walk from="987846921" to="389287227#0"/>
    </person>
    <person id="76" depart="380.00">
        <walk from="144176630#1" to="20448023"/>
    </person>
    <person id="77" depart="385.00">
        <walk from="-30133050" to="-599966746#0"/>
    </person>
    <person id="78" depart="390.00">
        <walk from="1106121183#2" to="28776351#4"/>
    </person>
    <person id="79" depart="395.00">
        <walk from="-706496749#0" to="-55702653#7"/>
    </person>
    <person id="80" depart="400.00">
        <walk from="-196934179#10" to="384185250#0"/>
    </person>
    <person id="81" depart="405.00">
        <walk from="-677579400" to="736305473"/>
    </person>
    <person id="82" depart="410.00">
        <walk from="58169647#0" to="-196934179#10"/>
    </person>
    <person id="83" depart="415.00">
        <walk from="-727833913#1" to="41863457"/>
    </person>
    <person id="84" depart="420.00">
        <walk from="-5171331#0" to="-380809596"/>
    </person>
    <person id="85" depart="425.00">
        <walk from="78413636#0" to="257885010#2"/>
    </person>
    <person id="86" depart="430.00">
        <walk from="185136472" to="4750190#1"/>
    </person>
    <person id="87" depart="435.00">
        <walk from="4844459#0" to="-4839473#3"/>
    </person>
    <person id="88" depart="440.00">
        <walk from="-23605432" to="137745896#1"/>
    </person>
    <person id="89" depart="445.00">
        <walk from="13444212#1" to="176934504#0"/>
    </person>
    <person id="90" depart="450.00">
        <walk from="45569652" to="4296031#5"/>
    </person>
    <person id="91" depart="455.00">
        <walk from="96646975#0" to="-23706684"/>
    </person>
    <person id="92" depart="460.00">
        <walk from="130679975" to="1106121183#9"/>
    </person>
    <person id="93" depart="465.00">
        <walk from="58649953" to="-745391452"/>
    </person>
    <person id="94" depart="470.00">
        <walk from="-4839473#2" to="157474253#1"/>
    </person>
    <person id="95" depart="475.00">
        <walk from="133917373#2" to="-928450051"/>
    </person>
    <person id="96" depart="480.00">
        <walk from="-746730893#1" to="767655534"/>
    </person>
    <person id="97" depart="485.00">
        <walk from="148001239#0" to="58649458"/>
    </person>
    <person id="98" depart="490.00">
        <walk from="23605436" to="-143784301#4"/>
    </person>
    <person id="99" depart="495.00">
        <walk from="997592565#3" to="5170104"/>
    </person>
    <person id="100" depart="500.00">
        <walk from="892553118" to="77658164#0"/>
    </person>
    <person id="101" depart="505.00">
        <walk from="547497995#1" to="-45359877#3"/>
    </person>
    <person id="102" depart="510.00">
        <walk from="192671951#0" to="-5171330#1"/>
    </person>
    <person id="103" depart="515.00">
        <walk from="12682521" to="-173988312"/>
    </person>
    <person id="104" depart="520.00">
        <walk from="1175931566#0" to="968763898#1"/>
    </person>
    <person id="105" depart="525.00">
        <walk from="-839276049" to="4750189#4"/>
    </person>
    <person id="106" depart="530.00">
        <walk from="167639650" to="13444210#1"/>
    </person>
    <person id="107" depart="535.00">
        <walk from="8752620#4" to="987846923"/>
    </person>
    <person id="108" depart="540.00">
        <walk from="23802539" to="45360504#2"/>
    </person>
    <person id="109" depart="545.00">
        <walk from="-45051111#0" to="10111730#2"/>
    </person>
    <person id="110" depart="550.00">
        <walk from="892553117" to="26350820"/>
    </person>
    <person id="111" depart="555.00">
        <walk from="226578079" to="4644901"/>
    </person>
    <person id="112" depart="560.00">
        <walk from="-169116507#1" to="28380058#0"/>
    </person>
    <person id="113" depart="565.00">
        <walk from="20279746#0" to="55702653#2"/>
    </person>
    <person id="114" depart="570.00">
        <walk from="-45073629#3" to="888028120#1"/>
    </person>
    <person id="115" depart="575.00">
        <walk from="-20279766" to="-4764318#1"/>
    </person>
    <person id="116" depart="580.00">
        <walk from="28892129#2" to="43183919#0"/>
    </person>
    <person id="117" depart="585.00">
        <walk from="-723812730" to="-289268925#0"/>
    </person>
    <person id="118" depart="590.00">
        <walk from="727833905" to="-736261761"/>
    </person>
    <person id="119" depart="595.00">
        <walk from="28891937#5" to="380618974#5"/>
    </person>
</routes>
