<?xml version="1.0" encoding="UTF-8"?>

<!-- generated on 2023-05-30 14:58:27.725415 by randomTrips.py v1_17_0+0000-737931d58da
<configuration>
    <net-file value="glasgow.net.xml"/>
    <output-trip-file value="ped_trips.xml"/>
    <route-file value="ped_routes.rou.xml"/>
    <pedestrians value="True"/>
    <end value="600"/>
    <period value="5.0"/>
</configuration>
-->

<!-- generated on 2023-05-30 14:58:26 by Eclipse SUMO duarouter Version 1.17.0
<configuration xmlns:xsi="http://www.w3.org/2001/XMLSchema-instance" xsi:noNamespaceSchemaLocation="http://sumo.dlr.de/xsd/duarouterConfiguration.xsd">

    <input>
        <net-file value="glasgow.net.xml"/>
        <route-files value="ped_trips.xml"/>
    </input>

    <output>
        <output-file value="ped_routes.rou.xml"/>
        <alternatives-output value="NUL"/>
    </output>

    <time>
        <begin value="0"/>
        <end value="600"/>
    </time>

    <report>
        <no-warnings value="true"/>
        <ignore-errors value="true"/>
        <no-step-log value="true"/>
    </report>

</configuration>
-->

<routes xmlns:xsi="http://www.w3.org/2001/XMLSchema-instance" xsi:noNamespaceSchemaLocation="http://sumo.dlr.de/xsd/routes_file.xsd">
    <person id="1" depart="5.00">
        <walk edges="-890027141 4470839#3 26303674 -376587847#5 -133372572#5 133372572#4 133372572#3 133372572#2 -133372572#1 -116601242#5 198642284#2 707455180 707455179 707455178 707455175#0 26303664#1 133372587#1 133372587#2 707455194#5 750592070#1 750592070#0 133372576#0 133372585#0 133372585#1 707455193 -58649458"/>
    </person>
    <person id="2" depart="10.00">
        <walk edges="4589099#4 12796510 35066914#0 380808600#1 749901774 749901775 749901776 749901777 749901778 749901779 116370225 116370214#4 116370214#0 116370262#0 116370262#1 389802135#3 389802135#4 389802135#5 389802135#6 90682376 -203955671#0 -131860123#1 -131860123#0 8751900#3 8751900#2 -23802666#0 -23802666#1 -23802666#2 23802666#3 -23802666#4 23802666#5 266253852 -23706686#0 -139718604#0 -139718604#1 139718604#2 78413636#1 438870186"/>
    </person>
    <person id="3" depart="15.00">
        <walk edges="727833916 -727833913#3 727833913#2 -727833913#1 -727833913#0 -8751890#0 8751890#1 8751893#1 -203955671#0 -90682376 -205819136 -201700815 -1003917173 4642302#0 4642302#1 4642302#2 4642302#3 201700816 193393335#1 1080363297#10 388941803#5 50814409#0 50814409#1 751643927#0 23381503 45885962 13444210#0 13444210#1 13444211#0 13444211#1 -381202305#2 4497324 736254764 736254765 381207142#2 381207142#1 381207142#0 47168897#0 -4627827 -198642280#0 198642280#1 -198969727#1 -198044378#1 198044378#2 198044378#3 198044378#4 -1089452022#5 1089452022#4 1089452022#3 1089452022#2 -1089452022#0 47168895#1 47168895#0 20466083#1 20466083#0 -20466084"/>
    </person>
    <person id="4" depart="20.00">
        <walk edges="133917373#2 -10111719#3 10111719#2 -10111719#0 -53804609#0 133632797#2 133917371 -10111730#0 10111730#2 -93269804#1 93269804#0 8073108#2 1014239671#1 1014239671#0 1113007292 11339907#0 4589099#3 4589099#4 164087247#0 -8073923#0 5137042 4548444 45403676#0 28892129#1 -380618974#6 -380618974#5 380618974#4 -380618974#3 380618974#2 -380618974#1 380618974#0 380618971#0 380618971#1 386617897 4760219 386617898#0 386617898#1 262604451 1175931568#1 1175931570#0 1175931569#0 1089451382#0 1089451382#1 1089451382#2 8073925#0 8073925#1 8073925#2 8073926#2 1175931591#0 -1175931591#1"/>
    </person>
    <person id="5" depart="25.00">
        <walk edges="-55702650 55702655 4548200#3 -4548200#4 45073977#0 45073977#1 726172047 4677319#3 4677319#1 4677319#0 1089452022#4 -1089452022#5 4745074 990894174 20448023 -20448005#0 -20448005#1 20448005#2 -20448005#3 20448005#4 -20448005#6 -20448005#7 744750261#0 744750261#1 744750261#2 744750260#1 1106121183#4 1106121183#3 307803060#1 1106121183#1 744750269 744750270 744750271 744750272 23605442#1 -45073629#5 45359877#0 121929411#2 121929412#0 121929412#1 121929412#2 20279762#1 23605428 23605427#2 121929406#1 121929400 23863005#0 4839473#3 4839473#2 20279754"/>
    </person>
    <person id="6" depart="30.00">
        <walk edges="-116391676#0 -116391676#1 116391676#2 753339805 753339806 185139229 -4497322#1 736602522 736602523 195637610 4494909#4 4494909#5 4494909#6 30133049 -736162066 -736162065#0 225409206 736162071 736301901 381207142#5 381207142#4 736254762 736254763 4497327 -381202305#3 13444211#1 13444211#0 13444210#1 13444210#0 45885962 23381503 751643927#0 50814409#1 50814409#0 388941803#5 1080363297#10 193393335#1 24375800#0 24375800#1 4644887 205833528#0 205833528#1 205833528#3 45051050#0 8746405#0 -8746407#0 -48610132"/>
    </person>
    <person id="7" depart="35.00">
        <walk edges="389287227#0 389287227#8 152019501 4642302#1 4642302#2 4642302#3 201700816 193393335#1 1080363297#10 388941803#5 50814409#0 50814409#1 751643927#0 23381503"/>
    </person>
    <person id="8" depart="40.00">
        <walk edges="-55702653#8 55702654#0 55702655 4548200#3 -4548200#4 4980164 4548209#3 4677321 28891843#0 28891843#1 26350819#0 26350820 491305324#2 491305324#1 491305324#0 28891696 28891834#1"/>
    </person>
    <person id="9" depart="45.00">
        <walk edges="485899794#2 485899794#1 45839039#1 45839039#2 45839039#3 45839039#4 45839039#5 23863006#3 23863006#2 23863006#1 23863006#0 23605428 20279762#1 121929412#2 121929412#1 121929412#0 121929411#2 45359877#0 -45073629#5 23605442#1 744750272 744750271 744750270 744750269 744750267 77663265#0 1106121183#3 1106121183#4 744750260#1 744750261#2 744750261#1 744750261#0 20448005#7 -20448005#6 20448005#4 20448005#3 20448005#2 101519095#0 -101519062"/>
    </person>
    <person id="10" depart="50.00">
        <walk edges="4844455#3 4844455#2 4844455#0 4494926#7 4494926#5 -4494926#4 -4494926#3 1061889146#1 1061889144#1 1061889144#0 172206444#1 172206444#2 4844450#0 -4677446#1 172206441 58648676#7 58648676#6 58648676#5 -58648676#4 58648676#3 58648676#2 -58648676#1 58648676#0 4677320#1 4677320#0 58169416 4787475#0 -145781025 4787473#0 198044378#2 4991165#0 4991165#1 4991165#2 20450086 43183919#0 43183919#1 103741996 103741992#1 103741992#0 -196934179#0 -4628076 28380058#2 28380058#1 -28380058#0 45051125#0 133372579#0 707455187#0 707455187#1 45051124#1"/>
    </person>
    <person id="11" depart="55.00">
        <walk edges="1119398512 -1119398512 -1119398511 -45073568#0 1156852559#0 -45073568#1"/>
    </person>
    <person id="12" depart="60.00">
        <walk edges="8752620#4 4644900#1 221119201 361266045#0 361266045#1 361218133 388878636 381212407#6 381212407#5 1025277270 1025277271 4717559#2 45886021 -45886020#0 45886020#1 1136445706#1 4903954 707455174 133372587#0 133372587#1 133372587#2 707455194#4 750592071#1 750592073#3 707455188#1 133372576#3 133372586#0 133372584#0 133372584#1 707455171 133372578 133372580 198642284#0 -384212608#2 384212608#3 -210429351#0 210429351#1 4839472#1 23605439 143927419 -45073628#5 -121929389 121929413#1 121929395#3 121929395#2 121929395#1 121929395#0 20279762#7 1097364300"/>
    </person>
    <person id="13" depart="65.00">
        <walk edges="-219832558#1 219832558#1 4677321 4548209#2 5730546#1 5730546#0 4638062#4 -4638062#3 190507336#0 190507336#1 190507336#2 4677319#1 4677319#0 1089452022#4 -1089452022#5 4745074 990894174 20448023 -20448005#0 -20448005#1 20448005#2 -20448005#3 20448005#4 -20448005#6 -20448005#7 744750261#0 744750261#1 744750261#2 744750260#1 1106121183#4 1106121183#3 307803060#1 1106121183#1 744750269 744750270 744750271 744750272 23605442#1 23605432 23605433#0 23605433#1 -23605431#1"/>
    </person>
    <person id="14" depart="70.00">
        <walk edges="544577573 544577574 532504152#0 532504151 547497995#1 547497995#0 547497994 547497996#2 532581792 4991184#1 -96646976#1 77663269#3 -77663269#2 77663269#1 102666686#0 102666703 102666698#1 102666680 326138090 102666681#1 102666689 102637691 182915558#0 101519108 101519052 101519098 101519091#4 101519091#3 101519091#2 101519091#1 101519091#0 -20448005#6 -20448005#7 196934179#3 -196934179#2 196934179#1 -196934179#0 -4628076 28380058#2 28380058#1 -28380058#0 45051125#0 133372579#0 707455187#0 707455187#1 707455187#2 133372575#0 133372575#1 133372585#0 707455194#7 750592073#1 750592070#1 707455194#5 133372587#2 133372587#1 26303664#1 707455175#0 707455178 707455179 707455180 198642284#2 198642284#3 1136445734 1136445724 1136445731#1 1136445710#0 1136445726 1136445721 1136445727#0 1136445712#1 1136445712#0 164500951 1047548239#1 679761827 116508841#0 202830393 4904187#1 4904187#2 4904149#3 -968763898#0 -968763898#1 -132131494 4745135 444472192 444472193 -4745136#2 -4745136#3 -4745136#5 -4745136#6 4745045#1 -4745045#0 325815768#1"/>
    </person>
    <person id="15" depart="75.00">
        <walk edges="4844458#2 -4844459#1 4844459#0 4494926#10 4494926#7 4494926#5 -4494926#4 -4494926#3 1061889146#1 1061889144#1 1061889144#0 172206444#1 172206444#2 4844450#0 -4677446#1 172206441 58648676#7 58648676#6 58648676#5 -58648676#4 58648676#3 58648676#2 -58648676#1 58648676#0 4677320#1 4677320#0 58169416 4787475#0 -145781025 4787473#0 198044378#2 -198044378#1 198969727#1 198642280#1 -198642280#0 4627827 47168897#0 47168897#1 204790849 45051130 892553115 987846923 892553116#1 892553116#0 892553118 894981818 894981816#3 894981816#4 892553114#3 892574652#2 892574652#1 892574652#0 225910572 -4787502#2 4787504 177621729#0 177621731 177621727#1 177621732 388878072 381202308#3 381202308#4 381202309#0 381202309#1 381202309#2 381202309#3 381202309#4 381212407#0 381212407#1 209263690#1 -209263690#0 1136445706#1 1136445706#0 1136445715 43847349#2 1136445734 1136445724 1136445731#1 1136445710#0 1136445726 1136445721 1136445727#0 1136445712#1 1136445712#0 164500951 1047548239#1 679761827 116508841#0 202830393 4904187#0 4904147 -45359120#0 -45359120#1 -45359120#2 -45359120#3 45359120#4 4904150#2 -4904150#1 85145099#3 489409930 -489409929#0 489409929#1 4904184#6 4904184#7 -45360504#2 45360506#0 45360506#1 45570240#1 45570240#2"/>
    </person>
    <person id="16" depart="80.00">
        <walk edges="221119204#1 -30162444#2 221112635#0 221112638 45049553 203403883#0 143769303 4483892#0 4483892#1 4483892#2 381215016 4483893#0 892553107 987846921 892553114#0 892553113#1 892574650 892574651 892574649 892574652#2 892553114#3 894981816#4 894981816#3 894981818 892553118 892553116#0 892553116#1 894981813"/>
    </person>
    <person id="17" depart="85.00">
        <walk edges="116739673#0 116739673#1 116739666 116739642 93505358 115908020 691210530 115908024 4642304#3 -125068105 125068104 740026609 125068103 4567177 4474113#0 4474113#1 -381202305#10 -381202305#9 -381202305#8 -381202305#7 -381202305#6 -381202305#5 -381202305#4 -381202305#3 -381202305#2 -381202305#1 -381202305#0 -381202306#0 -381202306#1 381215016 4483893#0 892553107 987846921 892553114#0 892553113#1 892574650 892574651 892574649 892574652#2 892574652#3 892574652#4 225910569 37607624#1 -37607624#0 45074530 185136472 185136473 -4628076 -196934179#0 -196934179#1 -188971388#0 744750264#0 744750264#1 744750260#2 744750260#1 1106121183#4 1106121183#3 307803060#1 307803060#0 -23605441 23605440#1"/>
    </person>
    <person id="18" depart="90.00">
        <walk edges="4991161#2 4991161#1 4991161#0 5299006 380618974#4 -380618974#3 380618974#2 -380618974#1 380618974#0"/>
    </person>
    <person id="19" depart="95.00">
        <walk edges="58650205 37764764#1 -1047583079#2 1051196796 1047583079#0 -1047583080 430737809#0 1047548239#1 164500951 1136445712#0 1136445712#1 1136445727#0 1136445721 1136445726 1136445710#0 1136445731#1 1136445724 1136445734 198642284#3 198642284#2 198642284#1 198642284#0 -384212608#2 384212608#3 -210429351#0 210429351#1 -20279746#0 -20279746#1 20279746#2 -20279772#0 26303897 -26303896#2 26303896#1"/>
    </person>
    <person id="20" depart="100.00">
        <walk edges="4516523#1 985143608 735349186 735349188 151952407 4548443#1 380618972 -730447301#1 730447301#0 -380618974#6 -380618974#5 380618974#4 -380618974#3 380618974#2 -380618974#1 380618974#0 380618971#0 380618971#1 386617897 4760219 386617898#0 386617898#1 262604451 1175931568#1 1175931570#0 1175931569#0 1089451382#0 1089451382#1 1089451382#2 8073925#0 8073925#1 8073925#2 8073926#2 -28891839#0 -28891839#1 28891839#3 28891840 28891834#3 -28891834#2 28891834#1 -28891695#2 102147604#0 -102147604#1 -4548199#2 4548199#1 -4844455#3 4844457#0 -4844457#1 -137745896#1 -137745894#0"/>
    </person>
    <person id="21" depart="105.00">
        <walk edges="-674823016 674823014#0 -20279755#0 732295445#3 -732295445#4 732295445#5 -732295445#6 732295445#7 -20279748 -20279749 -250478229#0 -250478229#1 -250478229#2 -250478229#4 250478229#5 -1039370199 1000108605#0"/>
    </person>
    <person id="22" depart="110.00">
        <walk edges="-20279759#3 -20279759#2 20279759#1 -20279759#0 45073628#6 -45073628#5 -45073628#4 45073628#3 45073628#2 -45073628#1 -45073628#0 -20279756#0 -20279756#1 -20279756#2 20279756#3 1157030914 26303873 1155343543 1155343546 1155343542#1 1155343542#0 1155343547 1155343541#1 1155343541#0 1155343539 1155343540 26303874#3 -26303875 -26303876 -45073568#0 1156852559#0 1156852559#1 889984801#0 889984801#1 554903307#1 554903307#0 -1039370199 250478229#5 177820576 -723812724#1"/>
    </person>
    <person id="23" depart="115.00">
        <walk edges="-23862996#4 167639665#1 167639675#4 167639675#3 167639675#2 167639675#1 888028120#0 -77664306#1 -77664306#0 45359877#4 -45359877#3 45359877#2 45359877#1 45359877#0 -45073629#5 23605442#1 744750272 744750271 744750270 744750269 744750267 77663265#0 1106121183#3 1106121183#4 744750260#1 744750260#2 744750264#1 744750264#0 -188971388#0 206988792#1 206988792#0 -43183919#0 20450086 4991165#2 4991165#1 204795809 591666544 591666541 591666551#0 591666553 204795810 -4787455#0 4787455#1 -417415066 -99798486 -206317572 -958054763 -197572274 26410601#0 -77670349#1 -926668116"/>
    </person>
    <person id="24" depart="120.00">
        <walk edges="384212608#3 -210429351#0 210429351#1 4839472#1 23605439 143927419 -45073628#5 -121929389 121929413#1 121929395#3 121929395#2 121929395#1 121929395#0 20279762#6 20279762#5 20279762#4 23605433#2 23605431#1 121929407#0 121929411#0 121929392 121929412#1 121929399 45359877#2 -45359877#3 23863001#0 23863001#1 103741995#0 103741995#1 -4839478#3 4839478#2 4839478#0 24324676#0 24324676#1 1103822693 115894395#1"/>
    </person>
    <person id="25" depart="125.00">
        <walk edges="116370214#4 116370214#3 116370278 39891023#2 93505358 115908020 691210530 115908024 4642304#3 -125068105 125068104 740026609 125068103 4567177 4474113#0 4474113#1 -381202305#10 -381202305#9 -381202305#8 -381202305#7 -381202305#6 -381202305#5 -381202305#4 4497327 736254763 736254762 381207142#4 381207142#5 381207142#6 4494909#8 -4627827 -198642280#0 198642280#1 -198969727#1 -198044378#1 198044378#2 198044378#3 198044378#4 -1089452022#5 1089452022#4 1089452022#3 1089452022#2 -1089452022#0 47168895#1 47168895#0 -4494913#6 4494913#7 4494913#8 4494913#9 -4494913#10 4494913#11 -4494913#12 4475215#0 4475215#1 -4475215#2 4475215#4 -4475215#5 115316688 115316720 115316679#0 115316679#1 115316685 115316726#0 -4991182#1"/>
    </person>
    <person id="26" depart="130.00">
        <walk edges="-8746405#1 8746405#0 45051050#0 8746401#0 389792574 -8746402 -131860123#1 8751893#1 8751893#0 950205189#1 950205189#0 -454051240#1 454051240#0 41863458 -35066921 -35066922#0 35066923 534200273#0 534200273#1 -93269804#1 93269804#0 8073108#2 8073108#1"/>
    </person>
    <person id="27" depart="135.00">
        <walk edges="389070156 389287227#2 389287227#1 389287227#0 389287227#8 152019501 4642302#0 721037390 4642304#3 4642304#2 4642304#1 4642304#0 35066914#0"/>
    </person>
    <person id="28" depart="140.00">
        <walk edges="-4548297#2 4548297#3 4844458#3 4844458#2 -4844459#1 4844459#0 4494926#10 4494926#7 4494926#5 -4494926#4 -4494926#3 1061889146#1 1061889144#1 1061889144#0 172206444#1 172206444#2 4844450#0 -4677446#1 172206441 58648676#7 58648676#6 58648676#5 -58648676#4 58648676#3 58648676#2 -58648676#1 58648676#0 4677320#1 4677320#0 58169416 4787475#0 -145781025 4787473#0 198044378#2 -198044378#1 198969727#1 198642280#1 -198642280#0 4627827 47168897#0 47168897#1 204790849 45051130 892553115 987846923 892553116#1 892553116#0 892553118 894981818 894981816#3 894981816#4 892553114#3 892574652#2 892574652#1 892574652#0 225910572 -4787502#2 4787504 177621729#0 177621731 177621727#1 177621732 388878072 381202308#3 381202308#4 381202309#0 381202309#1 381202309#2 381202309#3 381202309#4 381212407#0 381212407#1 209263690#1 -209263690#0 1136445706#1 1136445706#0 1136445715 43847349#2 1136445734 1136445724 1136445731#1 1136445710#0 1136445726 1136445721 1136445727#0 1136445712#1 1136445712#0 164500951 1047548239#1 679761827 116508841#0 202830393 4904187#0 4904147 -45359120#0 -45359120#1 -45359120#2 -45359120#3 45359120#4 4904150#2 -4904150#1 85145099#3 489409930 -489409929#0 489409929#1 4904184#6 4904184#7 -45360504#2 45360506#0 25774329#0 45570414 198642281#1 45569652"/>
    </person>
    <person id="29" depart="145.00">
        <walk edges="-45359120#2 45359120#1 45359120#0 4904147 4904187#0 202830393 116508841#0 679761827 1047548239#1 164500951 1136445712#0 1136445712#1 1136445727#0 1136445721 1136445726 1136445710#0 1136445731#1 1136445724 1136445734 43847349#2 1136445715 -1136445706#0 1136445706#1 -209263690#0 -209263690#1 381212407#1 381212407#0 381202309#4 381202309#3 381202309#2 381202309#1 381202309#0 381202308#4 381202308#3 388878072 177621732 177621727#1 177621727#0 177621728 177621730 388878073 381202308#0 25260617 -381202306#1 -381202306#0 -381202305#0 -381202305#1 -381202305#2 -381202305#3 -381202305#4 -381202305#5 -381202305#6 -381202305#7 -381202305#8 -381202305#9 -381202305#10 28776351#1 28776351#2 28776351#3 28776351#4 28776351#5 4494911#0 4494911#1 4494911#2 45405496 115418075 291947057#1 115418103 -45073976#1 -45073976#0 655636411 4548210#2 4548210#1 4548210#0 4548200#4 982371441#0 45267135#1 982371441#2 -4548200#0 1175931568#1 1175931570#0 1175931569#0 28891919#2 28891919#1 1175931567#0"/>
    </person>
    <person id="31" depart="155.00">
        <walk edges="23802762 8751900#1 8751900#2 8751900#3 -131860123#0 -131860123#1 -203955671#0 -90682376 -205819136 -201700815 -1003917173 4953265 4953267#1 4953267#0 26403932 4474113#0 4474113#1 28776351#1 28776351#2 28776351#3 28776351#4 28776351#5 4494909#0 4494909#1"/>
    </person>
    <person id="32" depart="160.00">
        <walk edges="5299007 28776351#3 28776351#2 28776351#1 -381202305#10 -381202305#9 -381202305#8 -381202305#7 -381202305#6 -381202305#5 -381202305#4 -381202305#3 -381202305#2 -381202305#1 -381202305#0 -381202306#0 -381202306#1 25260617 381202308#0 388878073 177621730 177621728 177621727#0 177621727#1 177621732 388878072 381202308#3 381202308#4 381202309#0 381202309#1 381202309#2 381202309#3 381202309#4 381212407#0 381212407#1 209263690#1 -209263690#0 1136445706#1 1136445706#0 1136445715 43847349#2 1136445734 1136445724 1136445731#1 1136445710#0 1136445726 1136445721 1136445727#0 1136445712#1 1136445712#0 164500951 1047548239#1 679761827 116508841#0 202830393 4904187#1 4904187#2 4904149#3 -968763898#0 -45359066 -4745089 444472194 384185253 384186891#0 589982090 4745043"/>
    </person>
    <person id="33" depart="165.00">
        <walk edges="-677579401 -677579396#1 20279754 -4839473#1 23862999 -121929410#0 167639666#1 167639674#0 23863006#4 23863006#3 23863006#2 23863006#1 23863006#0 23605428 20279762#1 121929412#2 121929412#1 121929412#0 121929411#2 45359877#0 -45073629#5 23605442#1 744750272 744750271 744750270 744750269 1106121183#1 307803060#1 1106121183#3 1106121183#4 744750260#1 744750260#2 744750264#1 744750264#0 -188971388#0 196934179#1 -196934179#0 -4628076 185136473 185136472 45074530 37607624#0 37607624#1 225910569 892574652#4 892574652#3 892574652#2 892574649 892574651 892574650 892553113#1 892553114#0 987846921 892553107 4483893#0 381215016 -381202306#1 -381202306#0 -381202305#0 -381202305#1 -381202305#2 13444211#1 13444211#0 13444210#1 13444210#0 45885962 23381503 751643927#0 50814409#1 50814409#0 388941803#5 1080363297#10 193393335#1 24375800#0 24375800#1 45051068#0 45051068#1 45051068#2 202744706#0 202744706#1 119504356 -119504364"/>
    </person>
    <person id="34" depart="170.00">
        <walk edges="102666699 102666686#1 102666686#0 102666703 102666698#1 102666680 326138090 102666681#1 102666689 102637691 182915558#0 101519108 101519052 101519098 101519091#4 101519091#3 101519091#2 101519091#1 101519091#0 -20448005#6 -20448005#7 196934179#3 -196934179#2 196934179#1 -196934179#0 -4628076 4787501#0 4787501#1 4542288 4778497 -45074531 745391452 -114324471 -4627829#0 4627829#1 417313760#0 417313760#1 417316667#0 417316667#1 417316667#2 417316667#3 417316667#4 417316667#5 4644890#2 8752620#5 8752620#6 8752620#7 134939932#1 134939932#0 134939934 134939928 8751310#6 -8751310#5 -8751310#4 -8751310#3 8751310#1 -8751310#0"/>
    </person>
    <person id="35" depart="175.00">
        <walk edges="-4991183#0 387428513#0 8157302#0 685023881#3 -685023881#1 685023881#0 -4494913#12 4494913#11 -4494913#10 4494913#9 4494913#8 4494913#7 -4494913#6 -47168895#0 47168895#1 1089452022#0 -1089452022#2 -1089452022#3 1089452022#4 -1089452022#5 -198044378#4 -198044378#3 198044378#2 -198044378#1 198969727#1 198642280#1 -198642280#0 827453788"/>
    </person>
    <person id="37" depart="185.00">
        <walk edges="389402416#2 389402416#3 4589099#2 4589099#3 4589099#4 164087247#0 -8073923#0 5137042 4548444 45403676#0 28892129#1 4862551#0 4862551#1 4862551#2 4717600#0 4717600#1 4717600#2 116370208 4717602#0 -4717602#1 -4717602#2 4717602#3 958054763 -206317572 99798486 417415066 4787455#1 -4787455#0 204795810 591666553 591666551#0 591666541 591666544 204795809 4991165#1 4991165#2 20450086 43183919#0 206988792#0 206988792#1 -188971388#0 744750264#0 744750264#1 744750260#2 744750260#1 1106121183#4 1106121183#3 307803060#1 1106121183#1 744750269 744750270 744750271 744750272 23605442#1 -45073629#5 -23605431#0 121929407#0 121929411#0"/>
    </person>
    <person id="38" depart="190.00">
        <walk edges="744750276 -744750273#0 307803060#1 1106121183#1 744750269 744750270 744750271 744750272 23605442#1 23605432 23605433#0 23605423#0 20279762#5 20279762#6 121929395#0 167639671#0"/>
    </person>
    <person id="39" depart="195.00">
        <walk edges="-83607388#0 83607388#1 983637050#1 983637050#0 37943342#1 37943342#0 4494912#5 4494912#4 -4494912#3 4494912#2 -4494912#1 -4494912#0 4494911#4 4494911#3 4494911#2 4494911#1 4494911#0 28776351#5 28776351#4 28776351#3 28776351#2 28776351#1 -381202305#10 -381202305#9 -381202305#8 -381202305#7 -381202305#6 -381202305#5 28776352 -736308367#0"/>
    </person>
    <person id="40" depart="200.00">
        <walk edges="23863004#2 997592563#0 997592561#1 997592562#0 997592562#1 997592559 997592565#2 997592566 196934179#8 -196934179#7 -196934179#6 196934179#3 -196934179#2 206988792#1 206988792#0 -43183919#0 20450086 4991165#2 4991165#1 204795809 591666544 591666541 591666551#0 591666553 204795810 198969727#1 198642280#1 -198642280#0 -827453788"/>
    </person>
    <person id="41" depart="205.00">
        <walk edges="286810237 4981556#3 4981556#4 -4638062#0 4638062#1 -4638062#2 -4638062#3 4638062#4 5730546#0 5730546#1 4548209#2 -4677321 -83607382#6 83607382#5 731204880"/>
    </person>
    <person id="42" depart="210.00">
        <walk edges="122719541 122719535 23706686#0 266253852 -23802666#5 23802666#4 23802666#3 -23802666#2 23802666#1 -23802666#0 8751900#2 8751900#3 -131860123#0 -131860123#1 -203955671#0 -90682376 -205819136 -201700815 -1003917173 4953265 4953267#1 4953267#0 26403932 4474113#0 4474113#1 28776351#1 28776351#2 28776351#3 28776351#4 28776351#5 4494911#0 4494911#1 4494911#2 45405496 115418075 291947057#1 115418103 -45073976#1 -45073976#0 655636411 4548210#2 4548210#1 4548210#0 4548200#4 4548200#3 55702655 -55702654#0 -55702653#8 -55702647 -55702653#2"/>
    </person>
    <person id="43" depart="215.00">
        <walk edges="997592562#2 997592562#1 997592562#0 997592561#1 997592563#0 23863004#2 23863004#1 23863004#0 -96646975#0 96646975#1 96646975#2 -23605431#0 23605431#1 23605433#2 20279762#4 20279762#5 20279762#6 20279762#7"/>
    </person>
    <person id="44" depart="220.00">
        <walk edges="-216664507 216664507 -725686376#1 725686376#0 4494926#5 -4494926#4 -4494926#3 1061889146#1 1061889144#1 1061889144#0 172206444#1 172206444#2 4844450#0 -4677446#1 172206441 58648676#7 -4844447#0 4844448 4844446#1 4844446#0 4494913#4 -4494913#5 -4494913#6 4494913#7 4494913#8 4494913#9 -4494913#10 4494913#11 -4494913#12 -685023881#0 -685023881#1 437898938 147564999 437898935 -77664375#0 -77664375#1 -77664375#2 -77664375#3 143784301#4 143784301#3 143784301#2 139585854#1 164500952#0 -4839478#0 139585857 -139585857"/>
    </person>
    <person id="45" depart="225.00">
        <walk edges="-26303896#1 26303896#2 26303897 -20279772#0 20279746#2 -20279746#1 -20279746#0 210429351#1 210429351#0 384212608#3 -384212608#2 198642284#0 133372580 133372578 707455171 133372584#1 133372584#0 133372586#0 133372576#3 707455188#1 750592073#3 750592071#1 707455194#4 133372587#2 133372587#1 133372587#0 707455174 -4903954 1136445706#1 45886020#1 45886020#0 4483894#0 4483894#1 381212407#3"/>
    </person>
    <person id="46" depart="230.00">
        <walk edges="4787454#2 -116391676#4 116391676#3 753339805 753339806 185139229 -4497322#3 4953269 4494911#0 28776351#5 28776351#4 28776351#3 28776351#2 28776351#1 4474113#1 4474113#0 4567177 125068103 740026609 125068104 -125068105 4642304#3 115908024 691210530 115908020 93505358 39891023#2 116370278 116370214#2 116370214#1 116370262#0 116370262#1 389802135#2 42205107#1 42205107#0 777742066#0 777742066#1 454051240#0 41863458 -35066921 -35066922#0 35066923 534200273#0 534200273#1 10111730#2 -10111730#0 133917371 133632797#2 -53804609#0 10111719#0 10111719#2 -10111719#3 133917373#2 133917373#3"/>
    </person>
    <person id="47" depart="235.00">
        <walk edges="-185807604#0 185807604#0 185807600#0 -20466083#0 -20466083#1 -4494913#5 4494913#4 -4494913#3 -4494913#2 4494913#1 4494913#0 4741291#1 4741291#0 -83607382#8 -83607382#6 83607382#5 -83607382#3 83607382#2 -83607382#1 1175931573#0"/>
    </person>
    <person id="48" depart="240.00">
        <walk edges="995103496 380808600#1 735349186 735349188 151952407 4548443#1 380618972 -730447301#1 730447301#0 -380618974#6 -380618974#5 380618974#4 -380618974#3 380618974#2 -380618974#1 380618974#0 380618971#0 380618971#1 386617897 4760219 386617898#0 386617898#1 262604451 1175931568#1 1175931570#0 1175931569#0 1089451382#0 1089451382#1 1089451382#2 8073925#0 8073925#1 8073925#2 8073926#2 -28891839#0 -28891839#1 28891839#3 28891840 28891834#3 -28891834#2 28891834#1 -28891695#2 102147604#0 216664510"/>
    </person>
    <person id="49" depart="245.00">
        <walk edges="892574650 892574651 892574649 892574652#2 892553114#3 894981816#4 894981816#3 894981818 892553118 892553116#0 892553116#1 987846923 892553115 45051130 204790849 47168897#1 47168897#0 -4627827 -198642280#0 198642280#1 -198969727#1 -198044378#1 198044378#2 4787473#0 -145781025 4787475#0 58169416 4677320#0 4677320#1 58648676#0 -58648676#1 58648676#2 -58648676#3 58648676#4"/>
    </person>
    <person id="51" depart="255.00">
        <walk edges="4475215#7 -4475215#6 -4475215#5 4475215#4 -4475215#2 4475215#1 4475215#0 4521152#2 4521152#1 -4521152#0 -1088915060#0 -1088915061 4521153#2 4521153#1 4521153#0 4397805 45051085 892553115 987846923 892553116#1 892553116#0 892553118 894981818 894981816#3 894981816#4 892553114#3 892574652#2 892574649 892574651 892574650 892553113#1 892553114#0 987846921 892553107 4483893#0 381215016 4483892#2 4483892#1 4483892#0 143769303 203403883#0 45049553 221112638 4573820#1 221119204#2 221119204#3 221119204#4 221119204#5"/>
    </person>
    <person id="52" depart="260.00">
        <walk edges="-8746405#0 8746405#0 45051050#0 205833528#3 205833528#1 205833528#0 4644887 24375800#1 24375800#0 193393335#1 1080363297#10 388941803#5 50814409#0 50814409#1 751643927#0 23381503 45885962 13444210#0 13444210#1 13444211#0 13444211#1 -381202305#2 4497324 736254764 736254765 381207142#2 381207142#1 381207142#0 47168897#0 -4627827 -198642280#0 198642280#1 -198969727#1 -198044378#1 198044378#2 198044378#3 198044378#4 -1089452022#5 1089452022#4 1089452022#3 1089452022#2 -1089452022#0 47168895#1 47168895#0 -4494913#6 4494913#7 4494913#8 4494913#9 -4494913#10 4494913#11 -4494913#12 -685023881#0 -685023881#1 -685023881#3 -4475203#0 1097150696#0 115894387#1 115894387#0 388177740 387410818#0"/>
    </person>
    <person id="53" depart="265.00">
        <walk edges="-28379982#1 4696644#0 4696644#2 -968763924 -968763923#0 -45358387#1 45358387#0 4745136#8 4745136#6 4745136#5 4745136#3 4745136#2 444472193 -444472192 4745135 132131494 968763898#1 -968763898#0 4904149#3 4904187#2 4904187#1 202830393 116508841#0 679761827 45886019#1 45886019#0 144176630#4 144176630#3 144176630#2 144176630#1 144176630#0 45051074#1 45051074#0 45049554#1 45049554#0 143769307#1 143769307#0 143769305"/>
    </person>
    <person id="54" depart="270.00">