<?xml version="1.0" encoding="UTF-8"?>

<!-- generated on 2023-05-30 14:58:22.981686 by randomTrips.py v1_17_0+0000-737931d58da
<configuration>
    <net-file value="glasgow.net.xml"/>
    <output-trip-file value="trailer_trips.xml"/>
    <route-file value="trailer_routes.rou.xml"/>
    <trip-attributes value="color=&quot;223,179,180&quot; accel=&quot;0.5&quot;"/>
    <end value="600"/>
    <vehicle-class value="trailer"/>
    <period value="150.0"/>
</configuration>
-->

<!-- generated on 2023-05-30 14:58:22 by Eclipse SUMO duarouter Version 1.17.0
<configuration xmlns:xsi="http://www.w3.org/2001/XMLSchema-instance" xsi:noNamespaceSchemaLocation="http://sumo.dlr.de/xsd/duarouterConfiguration.xsd">

    <input>
        <net-file value="glasgow.net.xml"/>
        <route-files value="trailer_trips.xml"/>
    </input>

    <output>
        <output-file value="trailer_routes.rou.xml"/>
        <alternatives-output value="NUL"/>
    </output>

    <time>
        <begin value="0"/>
        <end value="600"/>
    </time>

    <report>
        <no-warnings value="true"/>
        <ignore-errors value="true"/>
        <no-step-log value="true"/>
    </report>

</configuration>
-->

<routes xmlns:xsi="http://www.w3.org/2001/XMLSchema-instance" xsi:noNamespaceSchemaLocation="http://sumo.dlr.de/xsd/routes_file.xsd">
    <vType id="trailer" vClass="trailer" color="223,179,180" accel="0.5"/>
    <vehicle id="trailer0" type="trailer" depart="0.00">
        <route edges="45073628#6 4839472#0 4839472#1 -210429351#1 -210429351#0 -384212608#3 -384212608#2 198642284#0 198642284#1 198642284#2 198642284#3 43847349#2 1136445715 1136445706#0 1136445706#1 209263690#0 209263690#1 209263690#2 209263690#3 417313760#0 42796907#0 42796907#1 45051073#0 45051073#1 198044382#0 198044382#1 198044382#2 198044382#3 42796910#0 42796910#1 42796910#2 42796910#3 4497326#0 4497326#1 4497326#2 4567177 527034495 144176629 151952407 735349188 735349186 4642304#0 4642304#1 4642304#2 4642304#3 125068105 -125068105"/>
    </vehicle>
    <vehicle id="trailer1" type="trailer" depart="150.00">
        <route edges="-77670352#1 77670352#1 1089451382#1 1089451382#2 83607382#2 83607382#3 83607382#5 83607382#6 83607382#8 4741291#0 4741291#1 4494913#0 4494913#1 4494913#2 4494913#3 4494913#4 4494913#5 4494913#6 4494913#7 4494913#8 4494913#9 4494913#10 4494913#11 4494913#12 685023881#0 685023881#1 685023881#3 4475203#0 1097150695#1 1097150695#2 156536760#1 156536760#2 1103822695 4839479#0 4839479#1 1103822694 4839480 143784299 4839475 4981569 159408203 -476634672 -4904185#1 -4904185#0 -4904139#6 -4904139#5 -4904139#4 -4904139#3 -4904139#2 -4904139#1 -4904139#0 -45359120#0 4904149#1 4904149#2 4904149#3 968763898#0 968763898#1 45359065#0 45359065#1 -45359065#1 -45359065#0 -968763898#1 -968763898#0 -4904149#3 -4904149#2 -4904149#1"/>
    </vehicle>
    <vehicle id="trailer2" type="trailer" depart="300.00">
        <route edges="4717459#2 4717458 28072796#1 28072796#2 28072796#3 4296031#10 69067200 736368261 736368260 4296033 93230126#0 93230126#1 93230126#2 226152921#0 226152921#1 226150745 152135172 102730103 4345002#0 4345002#1 3469493 579403732 579403734 4470835 1801 1126700706 124452933 24324609 45494754"/>
    </vehicle>
    <vehicle id="trailer3" type="trailer" depart="450.00">
        <route edges="53804609#0 10111717 -10111717 -53804609#0 -10111716#8 -10111716#7 -10111716#6 -10111716#5 -10111716#4 -10111716#3 -10111716#2 -10111716#1 -10111716#0 10111714#0 10111714#1 4741295#6 4741295#7 4741295#8 4741295#9 4741295#10 4741295#11 9788059#1 9788059#2 11339912#0 11339912#1 47171927#0 12796510 35066914#0 4642304#0 4642304#1 4642304#2 4642304#3 721037390 4642302#0 4642302#1 4642302#2 4642302#3 201700816 26403933#2 45073934 26403934#0 26403934#1 26403934#2 26403934#3 143769307#0 143769307#1 45049554#0 45049554#1 45051074#0 45051074#1 144176630#0 144176630#1 144176630#2 144176630#3 144176630#4 45886019#0 45886019#1 1047548239#1 164500951 1136445712#0 1136445712#1 1136445712#2 1136445714 219273311#0 219273311#1 219273311#3 219273311#4 384212608#2 384212608#3 210429351#0 210429351#1 20279746#0 20279746#1 20279746#2 20279746#3 26303872 732295445#0 732295445#1 732295445#2 732295445#3 732295445#4 732295445#5 732295445#6 732295445#7 20279748 20279749 250478229#0 250478229#1 250478229#2 250478229#4 250478229#5 1039370199 -1039370199 -250478229#5 -250478229#4"/>
    </vehicle>
</routes>
