<?xml version="1.0" encoding="UTF-8"?>

<!-- generated on 2023-05-30 14:38:01.862699 by randomTrips.py v1_17_0+0000-737931d58da
<configuration>
    <net-file value="glasgow.net.xml"/>
    <route-file value="cars.rou.xml"/>
    <trip-attributes value="type=&quot;car&quot; departSpeed=&quot;max&quot; departLane=&quot;best&quot; -c passenger --additional-files car.add.xml -p 1.4 -e 1000 -l"/>
</configuration>
-->

<routes xmlns:xsi="http://www.w3.org/2001/XMLSchema-instance" xsi:noNamespaceSchemaLocation="http://sumo.dlr.de/xsd/routes_file.xsd">
    <trip id="0" depart="0.00" from="45073628#6" to="-125068105" type="car" departSpeed="max" departLane="best" -c passenger --additional-files car.add.xml -p 1.4 -e 1000 -l/>
    <trip id="1" depart="1.00" from="-77670352#1" to="-4904149#1" type="car" departSpeed="max" departLane="best" -c passenger --additional-files car.add.xml -p 1.4 -e 1000 -l/>
    <trip id="2" depart="2.00" from="4717459#2" to="45494754" type="car" departSpeed="max" departLane="best" -c passenger --additional-files car.add.xml -p 1.4 -e 1000 -l/>
    <trip id="3" depart="3.00" from="53804609#0" to="-250478229#4" type="car" departSpeed="max" departLane="best" -c passenger --additional-files car.add.xml -p 1.4 -e 1000 -l/>
    <trip id="4" depart="4.00" from="20279750#0" to="-139718604#1" type="car" departSpeed="max" departLane="best" -c passenger --additional-files car.add.xml -p 1.4 -e 1000 -l/>
    <trip id="5" depart="5.00" from="-485899794#3" to="26733953#1" type="car" departSpeed="max" departLane="best" -c passenger --additional-files car.add.xml -p 1.4 -e 1000 -l/>
    <trip id="6" depart="6.00" from="-131860123#1" to="-4844447#3" type="car" departSpeed="max" departLane="best" -c passenger --additional-files car.add.xml -p 1.4 -e 1000 -l/>
    <trip id="7" depart="7.00" from="4521175#0" to="384186897" type="car" departSpeed="max" departLane="best" -c passenger --additional-files car.add.xml -p 1.4 -e 1000 -l/>
    <trip id="8" depart="8.00" from="-48610084#2" to="4397805" type="car" departSpeed="max" departLane="best" -c passenger --additional-files car.add.xml -p 1.4 -e 1000 -l/>
    <trip id="9" depart="9.00" from="478853369" to="-102147604#0" type="car" departSpeed="max" departLane="best" -c passenger --additional-files car.add.xml -p 1.4 -e 1000 -l/>
    <trip id="10" depart="10.00" from="4787501#1" to="4642302#3" type="car" departSpeed="max" departLane="best" -c passenger --additional-files car.add.xml -p 1.4 -e 1000 -l/>
    <trip id="11" depart="11.00" from="1136445712#1" to="-4548199#2" type="car" departSpeed="max" departLane="best" -c passenger --additional-files car.add.xml -p 1.4 -e 1000 -l/>
    <trip id="12" depart="12.00" from="8073926#3" to="114001660#2" type="car" departSpeed="max" departLane="best" -c passenger --additional-files car.add.xml -p 1.4 -e 1000 -l/>
    <trip id="13" depart="13.00" from="-25548629#1" to="-28891837#0" type="car" departSpeed="max" departLane="best" -c passenger --additional-files car.add.xml -p 1.4 -e 1000 -l/>
    <trip id="14" depart="14.00" from="48610084#1" to="4483920#1" type="car" departSpeed="max" departLane="best" -c passenger --additional-files car.add.xml -p 1.4 -e 1000 -l/>
    <trip id="15" depart="15.00" from="4787503" to="47168895#0" type="car" departSpeed="max" departLane="best" -c passenger --additional-files car.add.xml -p 1.4 -e 1000 -l/>
    <trip id="16" depart="16.00" from="380618974#2" to="8751890#0" type="car" departSpeed="max" departLane="best" -c passenger --additional-files car.add.xml -p 1.4 -e 1000 -l/>
    <trip id="17" depart="17.00" from="144176630#0" to="384218090" type="car" departSpeed="max" departLane="best" -c passenger --additional-files car.add.xml -p 1.4 -e 1000 -l/>
    <trip id="18" depart="18.00" from="4839476" to="4494926#2" type="car" departSpeed="max" departLane="best" -c passenger --additional-files car.add.xml -p 1.4 -e 1000 -l/>
    <trip id="19" depart="19.00" from="4904139#4" to="42796907#1" type="car" departSpeed="max" departLane="best" -c passenger --additional-files car.add.xml -p 1.4 -e 1000 -l/>
    <trip id="20" depart="20.00" from="4644888#0" to="-197572274" type="car" departSpeed="max" departLane="best" -c passenger --additional-files car.add.xml -p 1.4 -e 1000 -l/>
    <trip id="21" depart="21.00" from="-4904139#4" to="-96646976#1" type="car" departSpeed="max" departLane="best" -c passenger --additional-files car.add.xml -p 1.4 -e 1000 -l/>
    <trip id="22" depart="22.00" from="-210429351#1" to="-4991182#7" type="car" departSpeed="max" departLane="best" -c passenger --additional-files car.add.xml -p 1.4 -e 1000 -l/>
    <trip id="23" depart="23.00" from="-28891834#3" to="-8751890#1" type="car" departSpeed="max" departLane="best" -c passenger --additional-files car.add.xml -p 1.4 -e 1000 -l/>
    <trip id="24" depart="24.00" from="45051125#0" to="143769306#4" type="car" departSpeed="max" departLane="best" -c passenger --additional-files car.add.xml -p 1.4 -e 1000 -l/>
    <trip id="25" depart="25.00" from="139718604#2" to="-485899794#1" type="car" departSpeed="max" departLane="best" -c passenger --additional-files car.add.xml -p 1.4 -e 1000 -l/>
    <trip id="26" depart="26.00" from="-77658164#0" to="736368178" type="car" departSpeed="max" departLane="best" -c passenger --additional-files car.add.xml -p 1.4 -e 1000 -l/>
    <trip id="27" depart="27.00" from="4521152#2" to="4494912#3" type="car" departSpeed="max" departLane="best" -c passenger --additional-files car.add.xml -p 1.4 -e 1000 -l/>
    <trip id="28" depart="28.00" from="-4627829#0" to="4713057#0" type="car" departSpeed="max" departLane="best" -c passenger --additional-files car.add.xml -p 1.4 -e 1000 -l/>
    <trip id="29" depart="29.00" from="-4548200#0" to="164087238#1" type="car" departSpeed="max" departLane="best" -c passenger --additional-files car.add.xml -p 1.4 -e 1000 -l/>
    <trip id="30" depart="30.00" from="96646975#1" to="45073977#0" type="car" departSpeed="max" departLane="best" -c passenger --additional-files car.add.xml -p 1.4 -e 1000 -l/>
    <trip id="31" depart="31.00" from="384218092#1" to="45787305" type="car" departSpeed="max" departLane="best" -c passenger --additional-files car.add.xml -p 1.4 -e 1000 -l/>
    <trip id="32" depart="32.00" from="4844458#2" to="4750189#4" type="car" departSpeed="max" departLane="best" -c passenger --additional-files car.add.xml -p 1.4 -e 1000 -l/>
    <trip id="33" depart="33.00" from="-4904140#0" to="-143769306#1" type="car" departSpeed="max" departLane="best" -c passenger --additional-files car.add.xml -p 1.4 -e 1000 -l/>
    <trip id="34" depart="34.00" from="102147604#0" to="-8073923#0" type="car" departSpeed="max" departLane="best" -c passenger --additional-files car.add.xml -p 1.4 -e 1000 -l/>
    <trip id="35" depart="35.00" from="-4844454#2" to="77658164#1" type="car" departSpeed="max" departLane="best" -c passenger --additional-files car.add.xml -p 1.4 -e 1000 -l/>
    <trip id="36" depart="36.00" from="4981556#1" to="1089451382#2" type="car" departSpeed="max" departLane="best" -c passenger --additional-files car.add.xml -p 1.4 -e 1000 -l/>
    <trip id="37" depart="37.00" from="45359120#3" to="196934179#9" type="car" departSpeed="max" departLane="best" -c passenger --additional-files car.add.xml -p 1.4 -e 1000 -l/>
    <trip id="38" depart="38.00" from="655636411" to="22287200#0" type="car" departSpeed="max" departLane="best" -c passenger --additional-files car.add.xml -p 1.4 -e 1000 -l/>
    <trip id="39" depart="39.00" from="-736817048" to="-685023881#3" type="car" departSpeed="max" departLane="best" -c passenger --additional-files car.add.xml -p 1.4 -e 1000 -l/>
    <trip id="40" depart="40.00" from="389802134#1" to="-77670348#1" type="car" departSpeed="max" departLane="best" -c passenger --additional-files car.add.xml -p 1.4 -e 1000 -l/>
    <trip id="41" depart="41.00" from="4296031#0" to="581608794" type="car" departSpeed="max" departLane="best" -c passenger --additional-files car.add.xml -p 1.4 -e 1000 -l/>
    <trip id="42" depart="42.00" from="196934179#10" to="-4904139#5" type="car" departSpeed="max" departLane="best" -c passenger --additional-files car.add.xml -p 1.4 -e 1000 -l/>
    <trip id="43" depart="43.00" from="983637050#1" to="28776351#1" type="car" departSpeed="max" departLane="best" -c passenger --additional-files car.add.xml -p 1.4 -e 1000 -l/>
    <trip id="44" depart="44.00" from="-250478229#2" to="-198044378#4" type="car" departSpeed="max" departLane="best" -c passenger --additional-files car.add.xml -p 1.4 -e 1000 -l/>
    <trip id="45" depart="45.00" from="-384186891#3" to="45051067#3" type="car" departSpeed="max" departLane="best" -c passenger --additional-files car.add.xml -p 1.4 -e 1000 -l/>
    <trip id="46" depart="46.00" from="4764315" to="20279768#2" type="car" departSpeed="max" departLane="best" -c passenger --additional-files car.add.xml -p 1.4 -e 1000 -l/>
    <trip id="47" depart="47.00" from="-20279759#4" to="164500952#0" type="car" departSpeed="max" departLane="best" -c passenger --additional-files car.add.xml -p 1.4 -e 1000 -l/>
    <trip id="48" depart="48.00" from="9788059#1" to="380554729" type="car" departSpeed="max" departLane="best" -c passenger --additional-files car.add.xml -p 1.4 -e 1000 -l/>
    <trip id="49" depart="49.00" from="8751310#1" to="4904140#3" type="car" departSpeed="max" departLane="best" -c passenger --additional-files car.add.xml -p 1.4 -e 1000 -l/>
    <trip id="50" depart="50.00" from="-1089452022#0" to="4677320#0" type="car" departSpeed="max" departLane="best" -c passenger --additional-files car.add.xml -p 1.4 -e 1000 -l/>
    <trip id="51" depart="51.00" from="45570240#0" to="382336253#2" type="car" departSpeed="max" departLane="best" -c passenger --additional-files car.add.xml -p 1.4 -e 1000 -l/>
    <trip id="52" depart="52.00" from="-77647202#1" to="45074078#0" type="car" departSpeed="max" departLane="best" -c passenger --additional-files car.add.xml -p 1.4 -e 1000 -l/>
    <trip id="53" depart="53.00" from="-386618432#1" to="20466087" type="car" departSpeed="max" departLane="best" -c passenger --additional-files car.add.xml -p 1.4 -e 1000 -l/>
    <trip id="54" depart="54.00" from="209263691#4" to="8073108#2" type="car" departSpeed="max" departLane="best" -c passenger --additional-files car.add.xml -p 1.4 -e 1000 -l/>
    <trip id="55" depart="55.00" from="4981556#0" to="-77670352#0" type="car" departSpeed="max" departLane="best" -c passenger --additional-files car.add.xml -p 1.4 -e 1000 -l/>
    <trip id="56" depart="56.00" from="257885008#2" to="-4745074" type="car" departSpeed="max" departLane="best" -c passenger --additional-files car.add.xml -p 1.4 -e 1000 -l/>
    <trip id="57" depart="57.00" from="60840346#0" to="491303421" type="car" departSpeed="max" departLane="best" -c passenger --additional-files car.add.xml -p 1.4 -e 1000 -l/>
    <trip id="58" depart="58.00" from="-964670164" to="45073976#1" type="car" departSpeed="max" departLane="best" -c passenger --additional-files car.add.xml -p 1.4 -e 1000 -l/>
    <trip id="59" depart="59.00" from="4494909#1" to="-45359877#8" type="car" departSpeed="max" departLane="best" -c passenger --additional-files car.add.xml -p 1.4 -e 1000 -l/>
    <trip id="60" depart="60.00" from="4745018#3" to="384185250#0" type="car" departSpeed="max" departLane="best" -c passenger --additional-files car.add.xml -p 1.4 -e 1000 -l/>
    <trip id="61" depart="61.00" from="4750189#3" to="380618971#1" type="car" departSpeed="max" departLane="best" -c passenger --additional-files car.add.xml -p 1.4 -e 1000 -l/>
    <trip id="62" depart="62.00" from="-10111716#0" to="11339912#1" type="car" departSpeed="max" departLane="best" -c passenger --additional-files car.add.xml -p 1.4 -e 1000 -l/>
    <trip id="63" depart="63.00" from="-116370279#0" to="725686376#0" type="car" departSpeed="max" departLane="best" -c passenger --additional-files car.add.xml -p 1.4 -e 1000 -l/>
    <trip id="64" depart="64.00" from="4991161#2" to="4844451#1" type="car" departSpeed="max" departLane="best" -c passenger --additional-files car.add.xml -p 1.4 -e 1000 -l/>
    <trip id="65" depart="65.00" from="10111714#1" to="-20279756#2" type="car" departSpeed="max" departLane="best" -c passenger --additional-files car.add.xml -p 1.4 -e 1000 -l/>
    <trip id="66" depart="66.00" from="4991161#0" to="77664375#0" type="car" departSpeed="max" departLane="best" -c passenger --additional-files car.add.xml -p 1.4 -e 1000 -l/>
    <trip id="67" depart="67.00" from="-23605431#0" to="250478229#2" type="car" departSpeed="max" departLane="best" -c passenger --additional-files car.add.xml -p 1.4 -e 1000 -l/>
    <trip id="68" depart="68.00" from="-20279774#3" to="4745019#4" type="car" departSpeed="max" departLane="best" -c passenger --additional-files car.add.xml -p 1.4 -e 1000 -l/>
    <trip id="69" depart="69.00" from="4745019#8" to="-4494926#2" type="car" departSpeed="max" departLane="best" -c passenger --additional-files car.add.xml -p 1.4 -e 1000 -l/>
    <trip id="70" depart="70.00" from="22731339" to="384210565#0" type="car" departSpeed="max" departLane="best" -c passenger --additional-files car.add.xml -p 1.4 -e 1000 -l/>
    <trip id="71" depart="71.00" from="-736817048" to="4953267#0" type="car" departSpeed="max" departLane="best" -c passenger --additional-files car.add.xml -p 1.4 -e 1000 -l/>
    <trip id="72" depart="72.00" from="20279753#1" to="-48610084#1" type="car" departSpeed="max" departLane="best" -c passenger --additional-files car.add.xml -p 1.4 -e 1000 -l/>
    <trip id="73" depart="73.00" from="381215016" to="47168895#0" type="car" departSpeed="max" departLane="best" -c passenger --additional-files car.add.xml -p 1.4 -e 1000 -l/>
    <trip id="74" depart="74.00" from="-4839473#0" to="1047548238#1" type="car" departSpeed="max" departLane="best" -c passenger --additional-files car.add.xml -p 1.4 -e 1000 -l/>
    <trip id="75" depart="75.00" from="9787930#0" to="45359120#0" type="car" departSpeed="max" departLane="best" -c passenger --additional-files car.add.xml -p 1.4 -e 1000 -l/>
    <trip id="76" depart="76.00" from="20448005#2" to="32405" type="car" departSpeed="max" departLane="best" -c passenger --additional-files car.add.xml -p 1.4 -e 1000 -l/>
    <trip id="77" depart="77.00" from="-4475215#4" to="-4904150#2" type="car" departSpeed="max" departLane="best" -c passenger --additional-files car.add.xml -p 1.4 -e 1000 -l/>
    <trip id="78" depart="78.00" from="1136445710#2" to="438870170#1" type="car" departSpeed="max" departLane="best" -c passenger --additional-files car.add.xml -p 1.4 -e 1000 -l/>
    <trip id="79" depart="79.00" from="-4904141#0" to="-4904140#0" type="car" departSpeed="max" departLane="best" -c passenger --additional-files car.add.xml -p 1.4 -e 1000 -l/>
    <trip id="80" depart="80.00" from="-203957021#2" to="45051111#0" type="car" departSpeed="max" departLane="best" -c passenger --additional-files car.add.xml -p 1.4 -e 1000 -l/>
    <trip id="81" depart="81.00" from="-4904140#0" to="58648676#6" type="car" departSpeed="max" departLane="best" -c passenger --additional-files car.add.xml -p 1.4 -e 1000 -l/>
    <trip id="82" depart="82.00" from="4903953#1" to="-20450086" type="car" departSpeed="max" departLane="best" -c passenger --additional-files car.add.xml -p 1.4 -e 1000 -l/>
    <trip id="83" depart="83.00" from="-4904186#0" to="4548200#1" type="car" departSpeed="max" departLane="best" -c passenger --additional-files car.add.xml -p 1.4 -e 1000 -l/>
    <trip id="84" depart="84.00" from="-4844458#0" to="-45051111#0" type="car" departSpeed="max" departLane="best" -c passenger --additional-files car.add.xml -p 1.4 -e 1000 -l/>
    <trip id="85" depart="85.00" from="735349187" to="417402316" type="car" departSpeed="max" departLane="best" -c passenger --additional-files car.add.xml -p 1.4 -e 1000 -l/>
    <trip id="86" depart="86.00" from="226578078#6" to="4764303#1" type="car" departSpeed="max" departLane="best" -c passenger --additional-files car.add.xml -p 1.4 -e 1000 -l/>
    <trip id="87" depart="87.00" from="4787503" to="-4787481" type="car" departSpeed="max" departLane="best" -c passenger --additional-files car.add.xml -p 1.4 -e 1000 -l/>
    <trip id="88" depart="88.00" from="-26303872" to="20448005#3" type="car" departSpeed="max" departLane="best" -c passenger --additional-files car.add.xml -p 1.4 -e 1000 -l/>
    <trip id="89" depart="89.00" from="20279753#2" to="226585764#3" type="car" departSpeed="max" departLane="best" -c passenger --additional-files car.add.xml -p 1.4 -e 1000 -l/>
    <trip id="90" depart="90.00" from="4683301#4" to="4548297#0" type="car" departSpeed="max" departLane="best" -c passenger --additional-files car.add.xml -p 1.4 -e 1000 -l/>
    <trip id="91" depart="91.00" from="93256779#2" to="-28891919#2" type="car" departSpeed="max" departLane="best" -c passenger --additional-files car.add.xml -p 1.4 -e 1000 -l/>
    <trip id="92" depart="92.00" from="196934179#9" to="115894396#0" type="car" departSpeed="max" departLane="best" -c passenger --additional-files car.add.xml -p 1.4 -e 1000 -l/>
    <trip id="93" depart="93.00" from="4904139#4" to="-706496749#2" type="car" departSpeed="max" departLane="best" -c passenger --additional-files car.add.xml -p 1.4 -e 1000 -l/>
    <trip id="94" depart="94.00" from="-4750193#3" to="219273311#1" type="car" departSpeed="max" departLane="best" -c passenger --additional-files car.add.xml -p 1.4 -e 1000 -l/>
    <trip id="95" depart="95.00" from="20279750#0" to="-8751894#0" type="car" departSpeed="max" departLane="best" -c passenger --additional-files car.add.xml -p 1.4 -e 1000 -l/>
    <trip id="96" depart="96.00" from="-58169414" to="69067221#1" type="car" departSpeed="max" departLane="best" -c passenger --additional-files car.add.xml -p 1.4 -e 1000 -l/>
    <trip id="97" depart="97.00" from="204790848" to="4904141#0" type="car" departSpeed="max" departLane="best" -c passenger --additional-files car.add.xml -p 1.4 -e 1000 -l/>
    <trip id="98" depart="98.00" from="384188710" to="-202753993#2" type="car" departSpeed="max" departLane="best" -c passenger --additional-files car.add.xml -p 1.4 -e 1000 -l/>
    <trip id="99" depart="99.00" from="995103496" to="4844455#2" type="car" departSpeed="max" departLane="best" -c passenger --additional-files car.add.xml -p 1.4 -e 1000 -l/>
    <trip id="100" depart="100.00" from="8746406#0" to="706496748#1" type="car" departSpeed="max" departLane="best" -c passenger --additional-files car.add.xml -p 1.4 -e 1000 -l/>
    <trip id="101" depart="101.00" from="4862551#0" to="-4638062#3" type="car" departSpeed="max" departLane="best" -c passenger --additional-files car.add.xml -p 1.4 -e 1000 -l/>
    <trip id="102" depart="102.00" from="23814109" to="-4865968#3" type="car" departSpeed="max" departLane="best" -c passenger --additional-files car.add.xml -p 1.4 -e 1000 -l/>
    <trip id="103" depart="103.00" from="196934179#3" to="-20279759#1" type="car" departSpeed="max" departLane="best" -c passenger --additional-files car.add.xml -p 1.4 -e 1000 -l/>
    <trip id="104" depart="104.00" from="144176630#1" to="93269804#4" type="car" departSpeed="max" departLane="best" -c passenger --additional-files car.add.xml -p 1.4 -e 1000 -l/>
    <trip id="105" depart="105.00" from="-736817048" to="4764294#1" type="car" departSpeed="max" departLane="best" -c passenger --additional-files car.add.xml -p 1.4 -e 1000 -l/>
    <trip id="106" depart="106.00" from="219273311#0" to="20279770#1" type="car" departSpeed="max" departLane="best" -c passenger --additional-files car.add.xml -p 1.4 -e 1000 -l/>
    <trip id="107" depart="107.00" from="8073926#3" to="9702630#1" type="car" departSpeed="max" departLane="best" -c passenger --additional-files car.add.xml -p 1.4 -e 1000 -l/>
    <trip id="108" depart="108.00" from="384218087" to="466695357#0" type="car" departSpeed="max" departLane="best" -c passenger --additional-files car.add.xml -p 1.4 -e 1000 -l/>
    <trip id="109" depart="109.00" from="-45359121#1" to="10111716#0" type="car" departSpeed="max" departLane="best" -c passenger --additional-files car.add.xml -p 1.4 -e 1000 -l/>
    <trip id="110" depart="110.00" from="8746405#0" to="42796910#3" type="car" departSpeed="max" departLane="best" -c passenger --additional-files car.add.xml -p 1.4 -e 1000 -l/>
    <trip id="111" depart="111.00" from="384169518" to="4744975#6" type="car" departSpeed="max" departLane="best" -c passenger --additional-files car.add.xml -p 1.4 -e 1000 -l/>
    <trip id="112" depart="112.00" from="-20279750#0" to="430737809#0" type="car" departSpeed="max" departLane="best" -c passenger --additional-files car.add.xml -p 1.4 -e 1000 -l/>
    <trip id="113" depart="113.00" from="262604454#0" to="4869276#1" type="car" departSpeed="max" departLane="best" -c passenger --additional-files car.add.xml -p 1.4 -e 1000 -l/>
    <trip id="114" depart="114.00" from="-45359877#10" to="83607382#2" type="car" departSpeed="max" departLane="best" -c passenger --additional-files car.add.xml -p 1.4 -e 1000 -l/>
    <trip id="115" depart="115.00" from="-2118" to="-4764318#2" type="car" departSpeed="max" departLane="best" -c passenger --additional-files car.add.xml -p 1.4 -e 1000 -l/>
    <trip id="116" depart="116.00" from="4470836" to="4548297#5" type="car" departSpeed="max" departLane="best" -c passenger --additional-files car.add.xml -p 1.4 -e 1000 -l/>
    <trip id="117" depart="117.00" from="-4904182#0" to="-4494912#4" type="car" departSpeed="max" departLane="best" -c passenger --additional-files car.add.xml -p 1.4 -e 1000 -l/>
    <trip id="118" depart="118.00" from="5171329" to="-685023881#1" type="car" departSpeed="max" departLane="best" -c passenger --additional-files car.add.xml -p 1.4 -e 1000 -l/>
    <trip id="119" depart="119.00" from="4397805" to="4494926#4" type="car" departSpeed="max" departLane="best" -c passenger --additional-files car.add.xml -p 1.4 -e 1000 -l/>
    <trip id="120" depart="120.00" from="202753993#3" to="4296033" type="car" departSpeed="max" departLane="best" -c passenger --additional-files car.add.xml -p 1.4 -e 1000 -l/>
    <trip id="121" depart="121.00" from="32565783#0" to="732295445#7" type="car" departSpeed="max" departLane="best" -c passenger --additional-files car.add.xml -p 1.4 -e 1000 -l/>
    <trip id="122" depart="122.00" from="-4839478#3" to="4644902#3" type="car" departSpeed="max" departLane="best" -c passenger --additional-files car.add.xml -p 1.4 -e 1000 -l/>
    <trip id="123" depart="123.00" from="-4991161#1" to="197572274" type="car" departSpeed="max" departLane="best" -c passenger --additional-files car.add.xml -p 1.4 -e 1000 -l/>
    <trip id="124" depart="124.00" from="4548199#1" to="10111716#8" type="car" departSpeed="max" departLane="best" -c passenger --additional-files car.add.xml -p 1.4 -e 1000 -l/>
    <trip id="125" depart="125.00" from="102730103" to="4744978#0" type="car" departSpeed="max" departLane="best" -c passenger --additional-files car.add.xml -p 1.4 -e 1000 -l/>
    <trip id="126" depart="126.00" from="-20448005#2" to="221119204#5" type="car" departSpeed="max" departLane="best" -c passenger --additional-files car.add.xml -p 1.4 -e 1000 -l/>
    <trip id="127" depart="127.00" from="990822936#2" to="9788059#1" type="car" departSpeed="max" departLane="best" -c passenger --additional-files car.add.xml -p 1.4 -e 1000 -l/>
    <trip id="128" depart="128.00" from="-20448005#4" to="-4865968#2" type="car" departSpeed="max" departLane="best" -c passenger --additional-files car.add.xml -p 1.4 -e 1000 -l/>
    <trip id="129" depart="129.00" from="-736817048" to="732295445#4" type="car" departSpeed="max" departLane="best" -c passenger --additional-files car.add.xml -p 1.4 -e 1000 -l/>
    <trip id="130" depart="130.00" from="4991182#1" to="4991182#2" type="car" departSpeed="max" departLane="best" -c passenger --additional-files car.add.xml -p 1.4 -e 1000 -l/>
    <trip id="131" depart="131.00" from="139718604#1" to="-4548297#0" type="car" departSpeed="max" departLane="best" -c passenger --additional-files car.add.xml -p 1.4 -e 1000 -l/>
    <trip id="132" depart="132.00" from="4844447#3" to="4644890#0" type="car" departSpeed="max" departLane="best" -c passenger --additional-files car.add.xml -p 1.4 -e 1000 -l/>
    <trip id="133" depart="133.00" from="4494909#7" to="93269806" type="car" departSpeed="max" departLane="best" -c passenger --additional-files car.add.xml -p 1.4 -e 1000 -l/>
    <trip id="134" depart="134.00" from="45359120#0" to="-1047548238#0" type="car" departSpeed="max" departLane="best" -c passenger --additional-files car.add.xml -p 1.4 -e 1000 -l/>
    <trip id="135" depart="135.00" from="4799419" to="10111716#6" type="car" departSpeed="max" departLane="best" -c passenger --additional-files car.add.xml -p 1.4 -e 1000 -l/>
    <trip id="136" depart="136.00" from="45359877#11" to="736368261" type="car" departSpeed="max" departLane="best" -c passenger --additional-files car.add.xml -p 1.4 -e 1000 -l/>
    <trip id="137" depart="137.00" from="-4494926#14" to="-4475215#4" type="car" departSpeed="max" departLane="best" -c passenger --additional-files car.add.xml -p 1.4 -e 1000 -l/>
    <trip id="138" depart="138.00" from="-380618974#4" to="386617896" type="car" departSpeed="max" departLane="best" -c passenger --additional-files car.add.xml -p 1.4 -e 1000 -l/>
    <trip id="139" depart="139.00" from="-77664375#2" to="4494909#2" type="car" departSpeed="max" departLane="best" -c passenger --additional-files car.add.xml -p 1.4 -e 1000 -l/>
    <trip id="140" depart="140.00" from="4644898#5" to="-4844455#0" type="car" departSpeed="max" departLane="best" -c passenger --additional-files car.add.xml -p 1.4 -e 1000 -l/>
    <trip id="141" depart="141.00" from="45051074#1" to="-77670353" type="car" departSpeed="max" departLane="best" -c passenger --additional-files car.add.xml -p 1.4 -e 1000 -l/>
    <trip id="142" depart="142.00" from="24324676#0" to="58648676#5" type="car" departSpeed="max" departLane="best" -c passenger --additional-files car.add.xml -p 1.4 -e 1000 -l/>
    <trip id="143" depart="143.00" from="485899794#3" to="-26303872" type="car" departSpeed="max" departLane="best" -c passenger --additional-files car.add.xml -p 1.4 -e 1000 -l/>
    <trip id="144" depart="144.00" from="20279753#2" to="-8751310#5" type="car" departSpeed="max" departLane="best" -c passenger --additional-files car.add.xml -p 1.4 -e 1000 -l/>
    <trip id="145" depart="145.00" from="-10111716#7" to="4745136#3" type="car" departSpeed="max" departLane="best" -c passenger --additional-files car.add.xml -p 1.4 -e 1000 -l/>
    <trip id="146" depart="146.00" from="45073628#1" to="-77669321" type="car" departSpeed="max" departLane="best" -c passenger --additional-files car.add.xml -p 1.4 -e 1000 -l/>
    <trip id="147" depart="147.00" from="4717600#3" to="384218087" type="car" departSpeed="max" departLane="best" -c passenger --additional-files car.add.xml -p 1.4 -e 1000 -l/>
    <trip id="148" depart="148.00" from="20279759#2" to="-1088915061" type="car" departSpeed="max" departLane="best" -c passenger --additional-files car.add.xml -p 1.4 -e 1000 -l/>
    <trip id="149" depart="149.00" from="-20466083#0" to="4991184#1" type="car" departSpeed="max" departLane="best" -c passenger --additional-files car.add.xml -p 1.4 -e 1000 -l/>
    <trip id="150" depart="150.00" from="58169416" to="384186900" type="car" departSpeed="max" departLane="best" -c passenger --additional-files car.add.xml -p 1.4 -e 1000 -l/>
    <trip id="151" depart="151.00" from="4844449#2" to="4296031#6" type="car" departSpeed="max" departLane="best" -c passenger --additional-files car.add.xml -p 1.4 -e 1000 -l/>
    <trip id="152" depart="152.00" from="-4521152#0" to="-4494926#13" type="car" departSpeed="max" departLane="best" -c passenger --additional-files car.add.xml -p 1.4 -e 1000 -l/>
    <trip id="153" depart="153.00" from="10111716#1" to="581608796#1" type="car" departSpeed="max" departLane="best" -c passenger --additional-files car.add.xml -p 1.4 -e 1000 -l/>
    <trip id="154" depart="154.00" from="4764320#1" to="4904140#1" type="car" departSpeed="max" departLane="best" -c passenger --additional-files car.add.xml -p 1.4 -e 1000 -l/>
    <trip id="155" depart="155.00" from="581608793" to="-485899794#2" type="car" departSpeed="max" departLane="best" -c passenger --additional-files car.add.xml -p 1.4 -e 1000 -l/>
    <trip id="156" depart="156.00" from="-581608796#1" to="-384186891#0" type="car" departSpeed="max" departLane="best" -c passenger --additional-files car.add.xml -p 1.4 -e 1000 -l/>
    <trip id="157" depart="157.00" from="4750190#0" to="5171322#0" type="car" departSpeed="max" departLane="best" -c passenger --additional-files car.add.xml -p 1.4 -e 1000 -l/>
    <trip id="158" depart="158.00" from="198044382#2" to="4497322#0" type="car" departSpeed="max" departLane="best" -c passenger --additional-files car.add.xml -p 1.4 -e 1000 -l/>
    <trip id="159" depart="159.00" from="-45359121#1" to="726172047" type="car" departSpeed="max" departLane="best" -c passenger --additional-files car.add.xml -p 1.4 -e 1000 -l/>
    <trip id="160" depart="160.00" from="4904141#2" to="8751896#2" type="car" departSpeed="max" departLane="best" -c passenger --additional-files car.add.xml -p 1.4 -e 1000 -l/>
    <trip id="161" depart="161.00" from="4798872" to="4991182#8" type="car" departSpeed="max" departLane="best" -c passenger --additional-files car.add.xml -p 1.4 -e 1000 -l/>
    <trip id="162" depart="162.00" from="-122443237#1" to="4717600#1" type="car" departSpeed="max" departLane="best" -c passenger --additional-files car.add.xml -p 1.4 -e 1000 -l/>
    <trip id="163" depart="163.00" from="1126700706" to="730447301#1" type="car" departSpeed="max" departLane="best" -c passenger --additional-files car.add.xml -p 1.4 -e 1000 -l/>
    <trip id="164" depart="164.00" from="4787473#0" to="4904149#1" type="car" departSpeed="max" departLane="best" -c passenger --additional-files car.add.xml -p 1.4 -e 1000 -l/>