<?xml version="1.0" encoding="UTF-8"?>

<!-- generated on 2023-03-09 12:03:16.298415 by randomTrips.py v1_16_0+0000-94ec4c6cd72
<configuration>
    <end value="1000"/>
    <length value="True"/>
    <net-file value="test.net.xml"/>
    <route-file value="map.rou.xml"/>
    <validate value="True"/>
</configuration>
-->

<!-- generated on 2023-03-09 12:03:14 by Eclipse SUMO duarouter Version 1.16.0
<configuration xmlns:xsi="http://www.w3.org/2001/XMLSchema-instance" xsi:noNamespaceSchemaLocation="http://sumo.dlr.de/xsd/duarouterConfiguration.xsd">

    <input>
        <net-file value="test.net.xml"/>
        <route-files value="trips.trips.xml"/>
    </input>

    <output>
        <output-file value="trips.trips.xml.tmp"/>
        <alternatives-output value="NUL"/>
        <write-trips value="true"/>
    </output>

    <time>
        <begin value="0"/>
        <end value="1000"/>
    </time>

    <report>
        <no-warnings value="true"/>
        <ignore-errors value="true"/>
        <no-step-log value="true"/>
    </report>

</configuration>
-->

<routes xmlns:xsi="http://www.w3.org/2001/XMLSchema-instance" xsi:noNamespaceSchemaLocation="http://sumo.dlr.de/xsd/routes_file.xsd">
    <trip id="2" depart="2.00" from="45568798#0" to="438870170#1"/>
    <trip id="3" depart="3.00" from="5003551#0" to="-20448005#3"/>
    <trip id="4" depart="4.00" from="159409664" to="-144176778#0"/>
    <trip id="5" depart="5.00" from="-4627827" to="226435372#0"/>
    <trip id="6" depart="6.00" from="-143755503#1" to="-45359294#0"/>
    <trip id="7" depart="7.00" from="42796907#1" to="250475812#1"/>
    <trip id="8" depart="8.00" from="-4628070#1" to="3469494"/>
    <trip id="10" depart="10.00" from="4763830" to="45049554#1"/>
    <trip id="11" depart="11.00" from="10111730#1" to="-385305539"/>
    <trip id="12" depart="12.00" from="8104379" to="1047548237"/>
    <trip id="14" depart="14.00" from="4839475" to="37802142"/>
    <trip id="15" depart="15.00" from="4764010" to="4548298#0"/>
    <trip id="16" depart="16.00" from="24317735#3" to="889984798#2"/>
    <trip id="17" depart="17.00" from="124452933" to="25774329#1"/>
    <trip id="18" depart="18.00" from="4799419" to="384189457"/>
    <trip id="21" depart="21.00" from="-4677742#1" to="-730447301#0"/>
    <trip id="24" depart="24.00" from="41276782" to="122443237#0"/>
    <trip id="25" depart="25.00" from="119028145" to="-45568798#0"/>
    <trip id="28" depart="28.00" from="-431740498#1" to="4548297#3"/>
    <trip id="29" depart="29.00" from="-42250357#1" to="143755503#3"/>
    <trip id="30" depart="30.00" from="968763898#1" to="417402319"/>
    <trip id="31" depart="31.00" from="25739963#4" to="4475203#0"/>
    <trip id="32" depart="32.00" from="4829972" to="4713085"/>
    <trip id="33" depart="33.00" from="-4677742#3" to="-145348390#0"/>
    <trip id="35" depart="35.00" from="-45494613#0" to="74607883"/>
    <trip id="36" depart="36.00" from="4904139#3" to="-93256779#1"/>
    <trip id="37" depart="37.00" from="4287401" to="153227133"/>
    <trip id="38" depart="38.00" from="58169415" to="202753994#0"/>
    <trip id="39" depart="39.00" from="-485899794#0" to="-4806323#1"/>
    <trip id="40" depart="40.00" from="26404121" to="-4904139#3"/>
    <trip id="42" depart="42.00" from="145348390#0" to="-4638062#0"/>
    <trip id="43" depart="43.00" from="990822937" to="22731426"/>
    <trip id="45" depart="45.00" from="-24299230#2" to="389802951#0"/>
    <trip id="46" depart="46.00" from="4744977#1" to="164087244#0"/>
    <trip id="47" depart="47.00" from="-198044378#1" to="143769308#1"/>
    <trip id="48" depart="48.00" from="9787930#2" to="24300160"/>
    <trip id="49" depart="49.00" from="8752500" to="4856735"/>
    <trip id="50" depart="50.00" from="-11340943" to="45359293"/>
    <trip id="51" depart="51.00" from="4470836" to="24324664#0"/>
    <trip id="53" depart="53.00" from="-24299417#1" to="177461757#4"/>
    <trip id="54" depart="54.00" from="198044378#4" to="8073923#0"/>
    <trip id="55" depart="55.00" from="4903953#1" to="-4904139#6"/>
    <trip id="58" depart="58.00" from="-74607883" to="417402316"/>
    <trip id="59" depart="59.00" from="37802142" to="-380618974#4"/>
    <trip id="60" depart="60.00" from="4644902#2" to="24324664#2"/>
    <trip id="61" depart="61.00" from="4713086#0" to="24317735#3"/>
    <trip id="65" depart="65.00" from="-8073108#1" to="-177450945#0"/>
    <trip id="66" depart="66.00" from="4904140#3" to="77658164#1"/>
    <trip id="67" depart="67.00" from="-203957021#3" to="205820313"/>
    <trip id="68" depart="68.00" from="-202753992#1" to="4644902#1"/>
    <trip id="70" depart="70.00" from="20279774#2" to="255574800"/>
    <trip id="71" depart="71.00" from="-485899794#2" to="4869276#1"/>
    <trip id="72" depart="72.00" from="163763584" to="-4567181"/>
    <trip id="74" depart="74.00" from="-45358387#0" to="-8751905"/>
    <trip id="76" depart="76.00" from="176982395#4" to="235044113#1"/>
    <trip id="78" depart="78.00" from="-99798486" to="3469493"/>
    <trip id="79" depart="79.00" from="-4677742#4" to="-4638062#4"/>
    <trip id="80" depart="80.00" from="-202753994#0" to="400611707"/>
    <trip id="82" depart="82.00" from="4856735" to="-202753992#1"/>
    <trip id="83" depart="83.00" from="-4713087#1" to="431740498#2"/>
    <trip id="84" depart="84.00" from="-45568798#1" to="-28891837#1"/>
    <trip id="85" depart="85.00" from="725686376#1" to="28891839#3"/>
    <trip id="87" depart="87.00" from="4764011" to="-45073976#0"/>
    <trip id="88" depart="88.00" from="-209250806#2" to="176982395#4"/>
    <trip id="89" depart="89.00" from="163763584" to="20279770#0"/>
    <trip id="90" depart="90.00" from="4548200#4" to="4345003"/>
    <trip id="93" depart="93.00" from="4856741#1" to="-4839473#4"/>
    <trip id="94" depart="94.00" from="-45073138" to="198909234#3"/>
    <trip id="95" depart="95.00" from="159409664" to="-553931253#1"/>
    <trip id="96" depart="96.00" from="-4764316#1" to="69067201"/>
    <trip id="98" depart="98.00" from="250475812#1" to="-166140940"/>
    <trip id="99" depart="99.00" from="995975739" to="4803181"/>
    <trip id="100" depart="100.00" from="8751898#0" to="69067217#6"/>
    <trip id="101" depart="101.00" from="4839475" to="-431740498#2"/>
    <trip id="102" depart="102.00" from="204867808#1" to="-4589100"/>
    <trip id="103" depart="103.00" from="145348390#0" to="-177450945#1"/>
    <trip id="104" depart="104.00" from="124452933" to="939539209"/>
    <trip id="106" depart="106.00" from="198642281#1" to="164087247#0"/>
    <trip id="107" depart="107.00" from="8104379" to="975961077"/>
    <trip id="108" depart="108.00" from="25566799#0" to="45359120#0"/>
    <trip id="109" depart="109.00" from="-37802142" to="-77669321"/>
    <trip id="114" depart="114.00" from="-380618974#0" to="838072820"/>
    <trip id="117" depart="117.00" from="-4713086#0" to="-25566799#1"/>
    <trip id="118" depart="118.00" from="4995800#0" to="-4806323#1"/>
    <trip id="119" depart="119.00" from="3469493" to="384189460"/>
    <trip id="121" depart="121.00" from="23183235" to="732295445#3"/>
    <trip id="122" depart="122.00" from="-45359877#3" to="453367155"/>
    <trip id="123" depart="123.00" from="-4713087#1" to="153227133"/>
    <trip id="125" depart="125.00" from="-8751890#1" to="4638062#4"/>
    <trip id="126" depart="126.00" from="-202753994#2" to="202753993#3"/>
    <trip id="127" depart="127.00" from="995975736" to="9787930#2"/>
    <trip id="128" depart="128.00" from="-202753994#2" to="-4589098"/>
    <trip id="129" depart="129.00" from="-485899794#3" to="730447301#1"/>
    <trip id="130" depart="130.00" from="4904185#0" to="4904145"/>
    <trip id="131" depart="131.00" from="119028145" to="-421679678"/>
    <trip id="132" depart="132.00" from="4803257" to="45073140#2"/>
    <trip id="133" depart="133.00" from="380554727" to="944632790"/>
    <trip id="134" depart="134.00" from="4287345#1" to="-1089452022#0"/>
    <trip id="138" depart="138.00" from="-23605443" to="25845035"/>
    <trip id="139" depart="139.00" from="-4904140#1" to="37802142"/>
    <trip id="143" depart="143.00" from="4839474#0" to="-206317572"/>
    <trip id="145" depart="145.00" from="-101987067" to="4683301#1"/>
    <trip id="146" depart="146.00" from="41276783" to="-4903953#1"/>
    <trip id="147" depart="147.00" from="45773042#0" to="25739963#4"/>
    <trip id="148" depart="148.00" from="164087238#0" to="-11339908#0"/>
    <trip id="149" depart="149.00" from="-20279746#3" to="491305324#0"/>
    <trip id="150" depart="150.00" from="553931253#1" to="250478229#1"/>
    <trip id="151" depart="151.00" from="4803257" to="33175470#1"/>
    <trip id="152" depart="152.00" from="-374975169" to="-28379992#5"/>
    <trip id="153" depart="153.00" from="-8073923#1" to="52114857"/>
    <trip id="154" depart="154.00" from="4745018#2" to="4856735"/>
    <trip id="155" depart="155.00" from="5204079" to="-45568798#1"/>
    <trip id="156" depart="156.00" from="-4764316#0" to="-226435372#0"/>
    <trip id="157" depart="157.00" from="4713086#0" to="4953267#0"/>
    <trip id="158" depart="158.00" from="15090877#2" to="384218087"/>
    <trip id="161" depart="161.00" from="4764309#0" to="4904185#0"/>
    <trip id="163" depart="163.00" from="-968763923#1" to="721037390"/>
    <trip id="164" depart="164.00" from="4750189#3" to="48610084#1"/>
    <trip id="165" depart="165.00" from="4764309#0" to="-4904182#3"/>
    <trip id="169" depart="169.00" from="202753581" to="-83607386"/>
    <trip id="170" depart="170.00" from="4744979#0" to="-4696644#0"/>
    <trip id="171" depart="171.00" from="-133917375" to="-45074753#1"/>
    <trip id="172" depart="172.00" from="-939539210#1" to="48610086"/>
    <trip id="173" depart="173.00" from="8751893#0" to="-553931253#1"/>
    <trip id="174" depart="174.00" from="417316667#7" to="156536756#2"/>
    <trip id="177" depart="177.00" from="8751900#3" to="-4494912#3"/>
    <trip id="178" depart="178.00" from="86419877" to="-4904148"/>
    <trip id="179" depart="179.00" from="-24299230#0" to="177461757#3"/>
    <trip id="180" depart="180.00" from="4548199#1" to="-889984798#0"/>
    <trip id="182" depart="182.00" from="13444210#1" to="32410"/>
    <trip id="184" depart="184.00" from="-10111730#1" to="69067217#2"/>
    <trip id="188" depart="188.00" from="4301078" to="-99798486"/>
    <trip id="189" depart="189.00" from="-86419877" to="4839475"/>
    <trip id="190" depart="190.00" from="45358932#1" to="-8073108#1"/>
    <trip id="191" depart="191.00" from="-8104379" to="159409664"/>
    <trip id="192" depart="192.00" from="145348391#1" to="-77664375#0"/>
    <trip id="193" depart="193.00" from="-28379992#3" to="164087235#1"/>
    <trip id="194" depart="194.00" from="736368179" to="4397805"/>
    <trip id="195" depart="195.00" from="5299005#0" to="384169518"/>
    <trip id="196" depart="196.00" from="-77647202#0" to="250478232#1"/>
    <trip id="197" depart="197.00" from="-10111716#1" to="-6182158#4"/>
    <trip id="198" depart="198.00" from="164087247#0" to="32565783#1"/>
    <trip id="199" depart="199.00" from="4287401" to="20279755#1"/>
    <trip id="200" depart="200.00" from="177461757#4" to="-4589100"/>
    <trip id="201" depart="201.00" from="20279756#2" to="5299005#1"/>
    <trip id="202" depart="202.00" from="4745018#1" to="-437080155#1"/>
    <trip id="205" depart="205.00" from="4784924" to="4638059"/>
    <trip id="208" depart="208.00" from="-4717618#0" to="20448005#3"/>
    <trip id="210" depart="210.00" from="156536756#2" to="400611707"/>
    <trip id="211" depart="211.00" from="-45073976#0" to="4497326#1"/>
    <trip id="212" depart="212.00" from="209249182#1" to="-4798846#1"/>
    <trip id="213" depart="213.00" from="4287401" to="-106787719"/>
    <trip id="214" depart="214.00" from="4628070#3" to="4683300#0"/>
    <trip id="218" depart="218.00" from="-4764316#0" to="4839475"/>
    <trip id="219" depart="219.00" from="198909234#2" to="4745045#0"/>
    <trip id="220" depart="220.00" from="431740498#1" to="958054763"/>
    <trip id="222" depart="222.00" from="4995802#0" to="380618974#5"/>
    <trip id="223" depart="223.00" from="45358932#0" to="226151793"/>
    <trip id="224" depart="224.00" from="4799422" to="250478232#1"/>
    <trip id="225" depart="225.00" from="5203957#2" to="4589100"/>
    <trip id="226" depart="226.00" from="20279770#3" to="-4865968#1"/>
    <trip id="227" depart="227.00" from="-4745074" to="417316667#6"/>
    <trip id="228" depart="228.00" from="4677319#0" to="237046751#3"/>
    <trip id="229" depart="229.00" from="386961143" to="-5203957#2"/>
    <trip id="230" depart="230.00" from="-20279756#1" to="-6182158#3"/>
    <trip id="231" depart="231.00" from="-4904139#4" to="-939539209"/>
    <trip id="233" depart="233.00" from="-4688526#3" to="4494926#4"/>
    <trip id="234" depart="234.00" from="45073628#3" to="-196934179#10"/>
    <trip id="235" depart="235.00" from="152135172" to="250475811#0"/>
    <trip id="239" depart="239.00" from="4844454#0" to="4677449#0"/>
    <trip id="241" depart="241.00" from="11339908#5" to="4642285"/>
    <trip id="242" depart="242.00" from="4839479#1" to="8073923#0"/>
    <trip id="245" depart="245.00" from="-4628070#2" to="-4638062#0"/>
    <trip id="246" depart="246.00" from="1735" to="-143769304#1"/>
    <trip id="247" depart="247.00" from="-974404841" to="4470835"/>
    <trip id="248" depart="248.00" from="14591300#2" to="-431740498#1"/>
    <trip id="250" depart="250.00" from="384189460" to="-143755503#1"/>
    <trip id="251" depart="251.00" from="144176630#3" to="28379992#5"/>
    <trip id="252" depart="252.00" from="-143755503#2" to="417627767"/>
    <trip id="254" depart="254.00" from="-168901488#1" to="143755503#2"/>
    <trip id="255" depart="255.00" from="-45568793#1" to="-9702627"/>
    <trip id="256" depart="256.00" from="4644900#0" to="143755503#2"/>
    <trip id="258" depart="258.00" from="-4787503" to="-20279843"/>
    <trip id="259" depart="259.00" from="-122443237#0" to="24324664#2"/>
    <trip id="260" depart="260.00" from="99798486" to="1136445719#0"/>
    <trip id="261" depart="261.00" from="42796910#1" to="4713087#1"/>
    <trip id="262" depart="262.00" from="42805771" to="4642302#2"/>
    <trip id="263" depart="263.00" from="77670348#1" to="-45359294#3"/>
    <trip id="264" depart="264.00" from="-122443237#3" to="-380556683#0"/>
    <trip id="265" depart="265.00" from="-26412122#4" to="431740498#5"/>
    <trip id="266" depart="266.00" from="26412122#1" to="-4628071#1"/>
    <trip id="267" depart="267.00" from="45049553" to="4677742#1"/>
    <trip id="268" depart="268.00" from="-4295451#2" to="380060006#1"/>
    <trip id="270" depart="270.00" from="4784924" to="8746405#0"/>
    <trip id="273" depart="273.00" from="8154136" to="153227133"/>
    <trip id="275" depart="275.00" from="4494912#1" to="389802137"/>
    <trip id="276" depart="276.00" from="-226435372#0" to="4688526#3"/>
    <trip id="277" depart="277.00" from="4839476" to="374975169"/>
    <trip id="278" depart="278.00" from="-25566799#0" to="939539205"/>
    <trip id="279" depart="279.00" from="47171928#0" to="11340950#0"/>
    <trip id="280" depart="280.00" from="164087239" to="12682521"/>
    <trip id="281" depart="281.00" from="219273311#1" to="1089452022#3"/>
    <trip id="282" depart="282.00" from="4839475" to="4787454#0"/>
    <trip id="283" depart="283.00" from="-23605425" to="838072820"/>
    <trip id="284" depart="284.00" from="41276782" to="4799012"/>
    <trip id="285" depart="285.00" from="45073629#4" to="1801"/>
    <trip id="287" depart="287.00" from="-48869146" to="4750191#1"/>
    <trip id="289" depart="289.00" from="172206437#6" to="4548298#2"/>
    <trip id="291" depart="291.00" from="4799422" to="-20448005#0"/>
    <trip id="293" depart="293.00" from="202753992#1" to="380554729"/>
    <trip id="294" depart="294.00" from="124452933" to="-143755503#3"/>
    <trip id="295" depart="295.00" from="4839476" to="-4494926#15"/>
    <trip id="296" depart="296.00" from="-45568798#0" to="4744978#4"/>
    <trip id="297" depart="297.00" from="10111730#1" to="4904149#3"/>
    <trip id="298" depart="298.00" from="45051068#0" to="-52128827"/>
    <trip id="299" depart="299.00" from="-11339908#5" to="77664375#0"/>
    <trip id="300" depart="300.00" from="-203957021#3" to="45359292#2"/>
    <trip id="301" depart="301.00" from="205818337" to="4644897#1"/>
    <trip id="302" depart="302.00" from="4494912#1" to="425184482#0"/>
    <trip id="307" depart="307.00" from="23814108" to="168901488#0"/>
    <trip id="308" depart="308.00" from="4596880#0" to="1003917173"/>
    <trip id="309" depart="309.00" from="45051125#1" to="-4991182#9"/>
    <trip id="310" depart="310.00" from="-4787455#0" to="-25845035"/>
    <trip id="311" depart="311.00" from="-45073140#2" to="-25566799#0"/>
    <trip id="313" depart="313.00" from="-4494926#14" to="-4628070#1"/>
    <trip id="314" depart="314.00" from="204735814" to="45361252#1"/>
    <trip id="315" depart="315.00" from="92146017" to="24299225"/>
    <trip id="316" depart="316.00" from="-5218768" to="-209263579"/>
    <trip id="317" depart="317.00" from="-45073629#5" to="-4696644#0"/>
    <trip id="318" depart="318.00" from="-4470839#0" to="-116370279#0"/>
    <trip id="320" depart="320.00" from="90682376" to="25845035"/>
    <trip id="321" depart="321.00" from="4497326#0" to="-28379992#3"/>
    <trip id="322" depart="322.00" from="4869273#0" to="209250806#10"/>
    <trip id="326" depart="326.00" from="736368180" to="204735814"/>
    <trip id="328" depart="328.00" from="-202753994#3" to="400611707"/>
    <trip id="329" depart="329.00" from="-176982395#3" to="-37802142"/>
    <trip id="330" depart="330.00" from="26412122#0" to="-833743727#1"/>
    <trip id="331" depart="331.00" from="973334484" to="-25548629#1"/>
    <trip id="332" depart="332.00" from="46493485" to="37802142"/>
    <trip id="333" depart="333.00" from="4744975#7" to="-4683299"/>
    <trip id="334" depart="334.00" from="23183235" to="202737432#0"/>
    <trip id="335" depart="335.00" from="177461766#1" to="4856735"/>
    <trip id="337" depart="337.00" from="384186903" to="380554728"/>
    <trip id="338" depart="338.00" from="4567181" to="77663269#2"/>
    <trip id="340" depart="340.00" from="4296031#9" to="-417415066"/>
    <trip id="343" depart="343.00" from="3469492#1" to="-732295445#4"/>
    <trip id="344" depart="344.00" from="-4688526#3" to="45073977#1"/>
    <trip id="346" depart="346.00" from="4475215#6" to="69067205"/>
    <trip id="347" depart="347.00" from="4741295#10" to="389792571"/>
    <trip id="348" depart="348.00" from="4296035#2" to="731731052"/>
    <trip id="349" depart="349.00" from="163763584" to="250475812#1"/>
    <trip id="350" depart="350.00" from="42250357#1" to="572200940#0"/>
    <trip id="351" depart="351.00" from="4799020" to="-202753992#1"/>
    <trip id="352" depart="352.00" from="-4287345#1" to="-8746405#0"/>
    <trip id="353" depart="353.00" from="4628070#1" to="28776346#1"/>
    <trip id="354" depart="354.00" from="-58648676#4" to="-26412122#2"/>
    <trip id="355" depart="355.00" from="4483893#4" to="45051068#2"/>
    <trip id="356" depart="356.00" from="736817048" to="221112635#0"/>
    <trip id="357" depart="357.00" from="209249182#1" to="-20279768#0"/>
    <trip id="358" depart="358.00" from="-154578505#0" to="177450945#0"/>
    <trip id="359" depart="359.00" from="-93256779#1" to="-4844447#2"/>
    <trip id="361" depart="361.00" from="4803260" to="32405"/>
    <trip id="362" depart="362.00" from="78413631" to="99798486"/>
    <trip id="363" depart="363.00" from="4345001" to="-4991161#2"/>
    <trip id="364" depart="364.00" from="-156536756#0" to="4644890#3"/>
    <trip id="365" depart="365.00" from="20279746#0" to="4256320"/>
    <trip id="366" depart="366.00" from="58648676#3" to="-4494926#14"/>
    <trip id="370" depart="370.00" from="431740498#2" to="4844455#0"/>
    <trip id="371" depart="371.00" from="-958054763" to="4494926#15"/>
    <trip id="372" depart="372.00" from="-58648676#1" to="753458193"/>
    <trip id="374" depart="374.00" from="198642280#1" to="-90682376"/>
    <trip id="375" depart="375.00" from="-939539198" to="8751900#2"/>
    <trip id="376" depart="376.00" from="14591300#0" to="23105621"/>
    <trip id="379" depart="379.00" from="-4494926#4" to="121017976"/>
    <trip id="380" depart="380.00" from="4642304#2" to="389792574"/>
    <trip id="381" depart="381.00" from="4644897#2" to="-4548199#2"/>
    <trip id="382" depart="382.00" from="250475811#2" to="69067225"/>
    <trip id="383" depart="383.00" from="176982395#4" to="45051050#0"/>
    <trip id="384" depart="384.00" from="-25845035" to="889984798#2"/>
    <trip id="385" depart="385.00" from="37802142" to="-4750193#4"/>
    <trip id="386" depart="386.00" from="-383167847" to="25739963#0"/>
    <trip id="387" depart="387.00" from="250478232#1" to="-209249182#1"/>
    <trip id="388" depart="388.00" from="9702628" to="58169415"/>
    <trip id="390" depart="390.00" from="4799587" to="218310239#0"/>
    <trip id="392" depart="392.00" from="-4904145" to="4799586"/>
    <trip id="393" depart="393.00" from="93322674#1" to="-4798846#0"/>
    <trip id="395" depart="395.00" from="59738303" to="22731341#1"/>
    <trip id="396" depart="396.00" from="4904148" to="48610084#1"/>
    <trip id="397" depart="397.00" from="-4904404" to="4717602#3"/>
    <trip id="399" depart="399.00" from="221112625#0" to="4778497"/>
    <trip id="400" depart="400.00" from="-52128827" to="-78413631"/>
    <trip id="402" depart="402.00" from="205818337" to="-37802142"/>
    <trip id="404" depart="404.00" from="250478231#0" to="250475811#1"/>
    <trip id="405" depart="405.00" from="198642282" to="-944632790"/>
    <trip id="406" depart="406.00" from="-4497322#3" to="45049553"/>
    <trip id="408" depart="408.00" from="4706944#1" to="-156536756#0"/>
    <trip id="409" depart="409.00" from="4589100" to="45073629#2"/>
    <trip id="411" depart="411.00" from="4301078" to="4778498#1"/>
    <trip id="412" depart="412.00" from="93322674#1" to="209263579"/>
    <trip id="413" depart="413.00" from="-153227133" to="221119202#0"/>
    <trip id="415" depart="415.00" from="48869146" to="188948807#1"/>
    <trip id="416" depart="416.00" from="235044113#2" to="202753992#1"/>
    <trip id="417" depart="417.00" from="45359293" to="159409664"/>
    <trip id="418" depart="418.00" from="4287401" to="-384186891#1"/>
    <trip id="420" depart="420.00" from="10111714#0" to="4494926#15"/>
    <trip id="422" depart="422.00" from="4839476" to="4853105#0"/>
    <trip id="424" depart="424.00" from="45358387#0" to="4644898#6"/>
    <trip id="426" depart="426.00" from="-202753992#1" to="400611707"/>
    <trip id="427" depart="427.00" from="595322007" to="990822936#2"/>
    <trip id="428" depart="428.00" from="4596880#3" to="177461757#3"/>
    <trip id="431" depart="431.00" from="4494926#15" to="554903307#2"/>
    <trip id="432" depart="432.00" from="-158371794#0" to="4744977#2"/>
    <trip id="433" depart="433.00" from="-730447301#0" to="135312836#0"/>
    <trip id="436" depart="436.00" from="-431740498#1" to="-20279756#0"/>
    <trip id="438" depart="438.00" from="-4713087#1" to="58169415"/>
    <trip id="439" depart="439.00" from="-34990734" to="202753994#2"/>
    <trip id="441" depart="441.00" from="-11339908#0" to="4745136#5"/>
    <trip id="443" depart="443.00" from="-380618974#5" to="19080750"/>
    <trip id="444" depart="444.00" from="106787716#0" to="3469492#1"/>
    <trip id="445" depart="445.00" from="417316667#1" to="164631505"/>
    <trip id="446" depart="446.00" from="-4764318#0" to="4839473#4"/>
    <trip id="448" depart="448.00" from="20466083#1" to="-4745072#1"/>
    <trip id="450" depart="450.00" from="9702683#1" to="-77663269#2"/>
    <trip id="452" depart="452.00" from="-4904149#2" to="28776340#1"/>
    <trip id="453" depart="453.00" from="4474113#0" to="4596880#3"/>
    <trip id="456" depart="456.00" from="-553931253#1" to="4744979#0"/>
    <trip id="458" depart="458.00" from="41276783" to="384218090"/>
    <trip id="459" depart="459.00" from="437080155#4" to="45359294#1"/>
    <trip id="461" depart="461.00" from="386968518" to="554903307#2"/>
    <trip id="462" depart="462.00" from="421676870" to="-8751890#1"/>
    <trip id="465" depart="465.00" from="-732295445#1" to="4628070#1"/>
    <trip id="468" depart="468.00" from="23814108" to="58169416"/>
    <trip id="469" depart="469.00" from="4799422" to="-48610084#1"/>
    <trip id="471" depart="471.00" from="4763830" to="4627913#0"/>
    <trip id="473" depart="473.00" from="86419877" to="-33175470#1"/>
    <trip id="474" depart="474.00" from="8751890#1" to="4856735"/>
    <trip id="476" depart="476.00" from="8751893#1" to="4745136#5"/>
    <trip id="478" depart="478.00" from="-116370279#0" to="24324661#3"/>
    <trip id="479" depart="479.00" from="198642280#0" to="4345002#1"/>
    <trip id="481" depart="481.00" from="478847214" to="742377812"/>
    <trip id="482" depart="482.00" from="-24299225" to="-47168895#0"/>
    <trip id="484" depart="484.00" from="26404121" to="594888675#2"/>
    <trip id="485" depart="485.00" from="-4628070#3" to="-19080750"/>
    <trip id="486" depart="486.00" from="4798846#0" to="579403734"/>
    <trip id="487" depart="487.00" from="-77663269#1" to="159409664"/>
    <trip id="489" depart="489.00" from="-77670348#1" to="209250806#2"/>
    <trip id="490" depart="490.00" from="-209250806#2" to="4981569"/>
    <trip id="492" depart="492.00" from="431740498#5" to="4589100"/>
    <trip id="494" depart="494.00" from="45885961" to="-384186891#1"/>
    <trip id="496" depart="496.00" from="205818337" to="159409664"/>
    <trip id="497" depart="497.00" from="78413631" to="-145348390#0"/>
    <trip id="498" depart="498.00" from="119028145" to="196934179#12"/>
    <trip id="499" depart="499.00" from="78334965#3" to="4844447#3"/>
    <trip id="500" depart="500.00" from="-209263579" to="4475215#6"/>
    <trip id="502" depart="502.00" from="114002811#0" to="15462829#0"/>
    <trip id="503" depart="503.00" from="-45073137" to="-26412122#0"/>
    <trip id="504" depart="504.00" from="4839475" to="202753583#1"/>
    <trip id="505" depart="505.00" from="4301078" to="417415067"/>
    <trip id="507" depart="507.00" from="4717604" to="-4798846#0"/>
    <trip id="508" depart="508.00" from="-26412122#2" to="28380058#0"/>
    <trip id="509" depart="509.00" from="-202753992#1" to="4677446#0"/>
    <trip id="510" depart="510.00" from="-4548199#0" to="-4628070#1"/>
    <trip id="511" depart="511.00" from="4869273#0" to="-974404841"/>
    <trip id="512" depart="512.00" from="-374975169" to="5218768"/>
    <trip id="515" depart="515.00" from="-4778498#0" to="-4470838"/>
    <trip id="517" depart="517.00" from="-116391676#4" to="4717602#3"/>
    <trip id="518" depart="518.00" from="-4713087#1" to="-96646976#1"/>
    <trip id="520" depart="520.00" from="45786309#2" to="24299230#2"/>
    <trip id="521" depart="521.00" from="4589100" to="20450284"/>
    <trip id="522" depart="522.00" from="4713086#0" to="22821276"/>
    <trip id="523" depart="523.00" from="-24299230#1" to="221119204#5"/>
    <trip id="524" depart="524.00" from="745391452" to="-154578505#0"/>
    <trip id="525" depart="525.00" from="47172045" to="4865963"/>
    <trip id="526" depart="526.00" from="22821276" to="202753993#0"/>
    <trip id="527" depart="527.00" from="8746402" to="-177461757#4"/>
    <trip id="528" depart="528.00" from="203932824#2" to="158371791#1"/>
    <trip id="529" depart="529.00" from="4474113#1" to="209250806#1"/>
    <trip id="531" depart="531.00" from="-203910672#0" to="380554196"/>
    <trip id="532" depart="532.00" from="-202737432#0" to="-5203957#3"/>
    <trip id="534" depart="534.00" from="-939539202" to="974404841"/>
    <trip id="535" depart="535.00" from="23802762" to="202753583#1"/>
    <trip id="538" depart="538.00" from="42805767" to="4677742#4"/>
    <trip id="539" depart="539.00" from="45359121#0" to="-4627829#1"/>
    <trip id="540" depart="540.00" from="196934179#6" to="-4696644#2"/>
    <trip id="541" depart="541.00" from="10111716#1" to="202753582"/>
    <trip id="544" depart="544.00" from="121929390" to="-380618974#0"/>
    <trip id="545" depart="545.00" from="6182158#3" to="-198909234#3"/>
    <trip id="546" depart="546.00" from="4799586" to="-209249182#1"/>
    <trip id="547" depart="547.00" from="-209250806#10" to="4573820#0"/>
    <trip id="550" depart="550.00" from="-95427144" to="-26412122#0"/>
    <trip id="551" depart="551.00" from="11339913" to="4301352"/>
    <trip id="552" depart="552.00" from="4628070#3" to="4865968#3"/>
    <trip id="553" depart="553.00" from="45359292#0" to="8751896#0"/>
    <trip id="555" depart="555.00" from="29089862#1" to="-45886020#0"/>
    <trip id="557" depart="557.00" from="-24299225" to="4839473#4"/>
    <trip id="560" depart="560.00" from="4839474#0" to="914211548#2"/>
    <trip id="561" depart="561.00" from="4784924" to="381202307"/>
    <trip id="562" depart="562.00" from="417402318" to="-143734635#0"/>
    <trip id="563" depart="563.00" from="69067213" to="4799020"/>
    <trip id="564" depart="564.00" from="-4865968#0" to="-4494913#7"/>
    <trip id="565" depart="565.00" from="45051111#1" to="-8751890#1"/>
    <trip id="567" depart="567.00" from="4869273#0" to="28776340#2"/>
    <trip id="568" depart="568.00" from="145348390#0" to="-34990734"/>
    <trip id="570" depart="570.00" from="4596880#1" to="-4628070#1"/>
    <trip id="572" depart="572.00" from="119028145" to="45359877#1"/>
    <trip id="573" depart="573.00" from="4713085" to="28776340#2"/>
    <trip id="574" depart="574.00" from="-203955671#0" to="-168901488#1"/>
    <trip id="575" depart="575.00" from="-380618974#0" to="384186903"/>
    <trip id="577" depart="577.00" from="429651445#1" to="205819137#5"/>
    <trip id="578" depart="578.00" from="177461757#4" to="-5203957#2"/>
    <trip id="580" depart="580.00" from="164087247#0" to="-594888672#2"/>
    <trip id="581" depart="581.00" from="438870170#1" to="205833528#3"/>