<?xml version="1.0" encoding="UTF-8"?>

<!-- generated on 2023-05-30 14:58:06.019751 by randomTrips.py v1_17_0+0000-737931d58da
<configuration>
    <net-file value="glasgow.net.xml"/>
    <output-trip-file value="truck_trips.xml"/>
    <route-file value="truck_routes.rou.xml"/>
    <trip-attributes value="color=&quot;179,223,183&quot;"/>
    <end value="600"/>
    <vehicle-class value="truck"/>
    <period value="15.0"/>
</configuration>
-->

<routes xmlns:xsi="http://www.w3.org/2001/XMLSchema-instance" xsi:noNamespaceSchemaLocation="http://sumo.dlr.de/xsd/routes_file.xsd">
    <vType id="truck" vClass="truck" color="179,223,183"/>
    <trip id="0" depart="0.00" from="45073628#6" to="-125068105" type="truck"/>
    <trip id="1" depart="15.00" from="-77670352#1" to="-4904149#1" type="truck"/>
    <trip id="2" depart="30.00" from="4717459#2" to="45494754" type="truck"/>
    <trip id="3" depart="45.00" from="53804609#0" to="-250478229#4" type="truck"/>
    <trip id="4" depart="60.00" from="20279750#0" to="-139718604#1" type="truck"/>
    <trip id="5" depart="75.00" from="-485899794#3" to="26733953#1" type="truck"/>
    <trip id="6" depart="90.00" from="-131860123#1" to="-4844447#3" type="truck"/>
    <trip id="7" depart="105.00" from="4521175#0" to="384186897" type="truck"/>
    <trip id="8" depart="120.00" from="-48610084#2" to="4397805" type="truck"/>
    <trip id="9" depart="135.00" from="478853369" to="-102147604#0" type="truck"/>
    <trip id="10" depart="150.00" from="4787501#1" to="4642302#3" type="truck"/>
    <trip id="11" depart="165.00" from="1136445712#1" to="-4548199#2" type="truck"/>
    <trip id="12" depart="180.00" from="8073926#3" to="114001660#2" type="truck"/>
    <trip id="13" depart="195.00" from="-25548629#1" to="-28891837#0" type="truck"/>
    <trip id="14" depart="210.00" from="48610084#1" to="4483920#1" type="truck"/>
    <trip id="15" depart="225.00" from="4787503" to="47168895#0" type="truck"/>
    <trip id="16" depart="240.00" from="380618974#2" to="8751890#0" type="truck"/>
    <trip id="17" depart="255.00" from="144176630#0" to="384218090" type="truck"/>
    <trip id="18" depart="270.00" from="4839476" to="4494926#2" type="truck"/>
    <trip id="19" depart="285.00" from="4904139#4" to="42796907#1" type="truck"/>
    <trip id="20" depart="300.00" from="4644888#0" to="-197572274" type="truck"/>
    <trip id="21" depart="315.00" from="-4904139#4" to="-96646976#1" type="truck"/>
    <trip id="22" depart="330.00" from="-210429351#1" to="-4991182#7" type="truck"/>
    <trip id="23" depart="345.00" from="-28891834#3" to="-8751890#1" type="truck"/>
    <trip id="24" depart="360.00" from="45051125#0" to="143769306#4" type="truck"/>
    <trip id="25" depart="375.00" from="139718604#2" to="-485899794#1" type="truck"/>
    <trip id="26" depart="390.00" from="-77658164#0" to="736368178" type="truck"/>
    <trip id="27" depart="405.00" from="4521152#2" to="4494912#3" type="truck"/>
    <trip id="28" depart="420.00" from="-4627829#0" to="4713057#0" type="truck"/>
    <trip id="29" depart="435.00" from="-4548200#0" to="164087238#1" type="truck"/>
    <trip id="30" depart="450.00" from="96646975#1" to="45073977#0" type="truck"/>
    <trip id="31" depart="465.00" from="384218092#1" to="45787305" type="truck"/>
    <trip id="32" depart="480.00" from="4844458#2" to="4750189#4" type="truck"/>
    <trip id="33" depart="495.00" from="-4904140#0" to="-143769306#1" type="truck"/>
    <trip id="34" depart="510.00" from="102147604#0" to="-8073923#0" type="truck"/>
    <trip id="35" depart="525.00" from="-4844454#2" to="77658164#1" type="truck"/>
    <trip id="36" depart="540.00" from="4981556#1" to="1089451382#2" type="truck"/>
    <trip id="37" depart="555.00" from="45359120#3" to="196934179#9" type="truck"/>
    <trip id="38" depart="570.00" from="655636411" to="22287200#0" type="truck"/>
    <trip id="39" depart="585.00" from="-736817048" to="-685023881#3" type="truck"/>
</routes>
