<?xml version="1.0" encoding="UTF-8"?>

<!-- generated on 2023-07-03 14:18:13.246912 by randomTrips.py v1_18_0+0000-03ecfdea036
<configuration>
    <net-file value="glasgow.net.xml"/>
    <output-trip-file value="bus_trips.xml"/>
    <route-file value="bus_routes.rou.xml"/>
    <trip-attributes value="accel=&quot;0.8&quot;"/>
    <end value="600"/>
    <vehicle-class value="bus"/>
    <period value="30.0"/>
</configuration>
-->

<!-- generated on 2023-07-03 14:18:12 by Eclipse SUMO duarouter Version 1.18.0
<configuration xmlns:xsi="http://www.w3.org/2001/XMLSchema-instance" xsi:noNamespaceSchemaLocation="http://sumo.dlr.de/xsd/duarouterConfiguration.xsd">

    <input>
        <net-file value="glasgow.net.xml"/>
        <route-files value="bus_trips.xml"/>
    </input>

    <output>
        <output-file value="bus_routes.rou.xml"/>
        <alternatives-output value="NUL"/>
    </output>

    <time>
        <begin value="0"/>
        <end value="600"/>
    </time>

    <report>
        <no-warnings value="true"/>
        <ignore-errors value="true"/>
        <no-step-log value="true"/>
    </report>

</configuration>
-->

<routes xmlns:xsi="http://www.w3.org/2001/XMLSchema-instance" xsi:noNamespaceSchemaLocation="http://sumo.dlr.de/xsd/routes_file.xsd">
    <vType id="bus" vClass="bus" accel="0.8"/>
    <vehicle id="0" type="bus" depart="0.00">
        <route edges="250478227#2 250478227#3 -250478227#3 -250478227#2 -250478227#1 -250478227#0 250478232#1 8073061 417625399#0 417625399#1 45494613#0 45494613#1 -895933691 -895933692 -55668652#4 -55668652#3 -55668652#2 24324524 24324499#1 118222680#0 118222680#1 92146016 92146012 1797 33891169 33891168 3469116 33891164 33891162 149795898 24732714 24732688 234046172 26789101 43667546 315215585 234039611 198749008 198749009 92409261 198851355 198851356 4017048 255827171 94939652 94939104 82466793 82466792 219271229 94939330 94939658 238384941 4981543 4981542 241187571 2818 52712110 163317233 2820 442727075 32523780 32523781 52712125 52712108 32524924 32591182 32524926 129913181 32525176 143309505 32525177 32545927 32545928 32545929 251710785#1 70314665 -242472025 -242472026 -7982840 -7982841 -238384487 238384499 1128312328 116133695 777677043 32546242 32546250 32546253 2823 32546793 32546795 2822 2826 142972955 32996881 1078941820 145071759 145071758 27602751 384765377 87201514 -26439064 4339524 115728646 115728654 -84818924 27471708 84818911 84818919 31001019 914151053 914151055 711109873 914151058 115728643#0 -195424838#2 -195424838#1 -195424838#0 -74726588 4887836 1126700709 4887537 74726740 236387093 970646929 970646928 1128312308 918465196 1128312309 918465197 290995925 95099947 95099946 1101191125 1101191123 673899005 673899003 74861338 74861587 1080506887 1080506888 94707503 35893239#0 35893239#1 35893239#2 35893513 673145277 94707499 839513328 95805198#0 95805198#1 35893237 35893235 95805202 239352718 935124737 115967749 115967750#0 114430345#0 114430345#1 114430345#2 114430344#0 114430344#1 1033995509#0 1033995509#1 202354850 202354849#0 32677572 196859210#0 196859210#1 196859211#0 196859211#2 219262952 219262955#0 219262955#1 673844578#0 673844578#1 375283263#0 375283263#1 666988589#0 1005669595 1005669596 4433101#0 4433101#1 -122229449#1 -122229449#0 -1006842358 -191613308#3 -191613308#2 -191613308#1 -191613308#0 -191613307 -1006842351#1 -1006842351#0 -75037931#4 -75037931#3 -75037931#2 -75037931#1 -75037931#0 4433099 673846203 4264444#0 4264444#2 309661658 673846211 1125902642 1125902641 1125902640 309661661 5886872#0 5886872#1 5886872#2 75038245 1125902637 75038240 75038237 75038227 673406318 673406337 673406336 75038226 75038231#0 75038231#1 5886869 5855730 1130650457 673406343 75038137 -447038554 447038555 447038556 -5855735 -447028607 447028606 1126031154 1125902632 5855738 5855741#0 1100851861 347368559#0 347368559#1 1100851860 1100851859 347369703 347369702#0 347369702#1 1100851858 2226 875919319 216511238 1126052823 347372281 347393572 1126771338 875919322 43586854 186229741 4264435 7646350 220036905 729756386 729756385 122387777 1126700710 75764909 1126700713 75764728 1126049730 165051493 1126049733 75765139 309734231 1126049738 1126049737 309734230 1126049740 1126049741 1126049742 72611069#0 72611069#1 1126049748 281766649 1126202391 1126202404 1126202383#0 1126202383#1 1126202383#2 263356380#0 263356380#1 263356380#2 263356380#3 263356380#4 263356380#5 1126202375 1126202374 1126202373 263356382 75745034#0 75745034#1 75745034#2 75745034#3 75745034#4 -4371821#1 -4371821#0 129214991 298458865 298458864 -298458863 -12517488#1 -12517488#0 -511115012#1 -511115012#0 93549156 -75744523 1126049761 1059705396 -459216942 -1126049766 -75653676 831442349#1 262610000 75653617#2 75653617#0 -388481022 -29045764 -29045763 -22889781#2 -22889781#1 75653037#0 -12625248#1 31014798#0 31014798#1 31014798#2 123192899#0 123192899#1 123192869 1126244618 -1126244618 -123192869"/>
    </vehicle>
    <vehicle id="1" type="bus" depart="30.00">
        <route edges="-4570535 4552649#7 4552649#8 -730099771#2 -730099771#1 -730099771#0 -4570538 118186240 196934180#0 4570588#2 4570588#3 4570588#4 4570588#5 24324075 368516494 147049020#0 24324115#0 24324115#1 16682270#1 16682270#2 203405678 152135170 397336690 317578231 60310293 23049213 3469484 339379778 490760601 490761767 348214164 348214165 490760602 404191022 404191023 490760639 499958246 571037596 571037598 457084756 501770283 484833312 490761768 457084758 457084759 421991088 489042927 484833292 37852069 37852068 37852067 37852072 484787458 484787459 401484481 56699865 56699863 35066592 22889428 143784660 143784661 22889403 22889404 23745004 39899874 39899876 23745003 22901118 22901120 256751475 4519095 160682189 256751477 136457071 136457073 69044619 69044639 4519096 4006078 113143233 113143237 258978979 1074799447 27001989 143888219 6181638 6181642 6181567 164857946 333493187 258978977 241161449#0 241161449#1 113827394#0 113827394#1 261302386#0 261302386#1 261302386#2 23066335 857623284 294260559 1082761838 99205503 191158304#0 191158304#1 1082761837 3708884#0 3708884#1 41421727 41421725 29325756 4252309 46158630 232315186 4252306#0 4252306#1 4252305 233580775 233580774 4252303 4252302 4252301#0 4252301#1 4892130 4252299#0 4252299#1 250578973#0 250578973#1 23126671 23126672 4516433 370021203 370021205 370021204#0 370021204#1 370021202 840089452#0 840089452#1 840089452#2 840089453 1185360314 4526643 4604619#0 4604619#1 4604619#2 4604626#0 4604626#1 5001411 5001412 5197318 622459373 5197319 2956345 23158059 23268778 23186963 368003201 -187007954#1 -187007954#0 -227758448 -227758449 -130995873 -130995875 -66569406 967346763 972211314 967346764 66569426 154795862#1 434919036#0 817845824 153681856 704223635#1 292166463 704223634 241396409#0 241396409#1 292128479 4684193 266896475#1 266896477#0 -301944112 -4871772 -33463744 -301941503 -33463745 434919033 4871773#0 3468 29172857 467563935 467563936 23186618#0 23186618#1 132911044#0 132911044#1 467563938 467563939 467563940 -132911043 -467564194 -467564195 -467564196 -23210269#1 -292128480#0 -4084026#1 -39896243#2 -39896243#1 -32395289#1 826996107#1 4084023#0 4084023#1 4084023#2 69403899#0 69403899#1 2956325#0 2956325#1 2956325#2 42178342#0 42178342#1 233032038#0 233032038#2 4685547 224520946 332289590#0 332289590#2 4887695 991786184 4019080 4019100 1167357078 1085797267 1085797268 958630574 4936473#0 4936473#1 -41123269#1 -41123269#0 -531351877 -479898679 19754359#0 19754359#1 374100499 68607606 68607607 239083447 239083448 239083450 239083449 494497517 2953985#0 2953985#1 354318315#0 354318315#1 354318314 399257528 399257526#0 399257526#1 228000960#0 228000960#1 399257534 399257530 392472646 316943218#0 2953986#0 2953986#1 2953986#2 329111756 329111757 531559961#0 531559961#1 43737897 4767418 231414111 934820975#0 934820975#1 934820973#0 934820973#1 134650327 934820974#0 934820974#1 934820976#0 934820976#1 2954007#0 2954007#1 66111753#0 66111753#1 482837515#0 482837515#1 482837514 402963645 415827527 337023860#0 337023860#1 66111779 1104884630 4755816 2954012#0 2954012#1 32476588 2954016 52664503 52664500 52664645 532805148 52664538 2954019 25023468 38764529 38764530 2954020 27157885 27157891 66112551 245052042 245052049 273373976 32670547 223522722 223522720 32670544 2955991 41419954 44316691 314199216 734217058 3981449 4642920 32668031 77526981 77526984 77527669 123079570 35263159 77519321 77519322 93474749 93474759 4891231#1 77531018 77531019 77531020 4643367#1 4927041 503055878 503055876 77531021 96808899 96808812 77531068 244592083 244592082 37343337 124988774 124988777 229267262 4927042#2 4927042#0 229267264 -229267261 -124988775 -124988773 -676557315 -676557316 -676557318 -124988776 676371224 676371219 676371222 547761374 -127689642 -401779491 -401779424 -134992871 -401779486 -401779475 -251779794 -77532014 -401779456 -401779432 -401779477 -401779430 -39467983 -401779468 251749640 251749635 251749641 251749638 -77532338 77532337 547761366 223433773 676600492 676600497 331813162 -401779461 -401779470 -401779443 -401779480 -251712237 -401779450 -401779482 -401779472 -251681745 -229209353 -229209354 -251683324 -401779465 -401779436 -401779484 -401779488 -401779453 -401779446 -77603776 -401779427 -401779493 -77603808 -401779439 -401779496 -1053081117 -1053081118 -251711600 -143764508 -143764507 -251712880 -401779458 -251712881 251712879 206419545 547761363 993362867 993362874 993362866 1125482340 4927045 112187674 979572127 979572126 26172272 26172273 199881208 23045689 199881207 23045691 36949400 36949401 979570062 43581017 1031071491 990490960 1100562379 990490961 990586171 1031071490 4701199 32612713 401783225 688187706 688187699 688187700 688192839 223429084 223429078 979569626 325045765 32986438#1 223429080 401783215 401783224 401783227 401783218 401783220 32985723 199859162 401783214 401783222 401783226 401783223 199859161 401783219 401783216 67915365 199829822 199829823 401783217 239827001 401783221 207503497 239826999 324053257 -152015865 30821035 465710892 465709254 28979723 465709250 465709251 1098333650 1104903482 1096855251 239314058 239314060 -401790580 -401790583 239559862 239559866 401790578 401790581 239559865 145299560 145299559 -77604318 -1077902772 77604460 683981207 -30820980 -683979602 -683979606 -683980809 -1100569841 -1100569842 -683995003 -683995002 -28956307 23944846 37602628 37602629 30824131 27546168 27558618 683242416 683243888 683243889 683242415 27546082 683362596 683362597 199103998 199104012 683376587 683376588 199104003 199104007 873108610 1104898875 706809466 30823909 683378664 683378665 23944847 32768031 32768033 239754206 683386025 30823830 683386026 239754205 683397059 683397060 239755994 683397058 683397061 239755996 683397380 -683397377 -683400703 -683400702 -239859370 -683400701 239859368 239859366 683406368 683406367 239859365 683407491 683407492 683407488 683407486 683407485 683407484 239865324 239865326 338125544 338126163 239865327 239865329 199551085 683410804 401747361 401747362 239865330 199551082 683411340 683411339 683411338 683411337 683418777 683418775 239883852 683418772 683418773 683421949 239883856 239883847 239883851 781597264 781597263 239883854 199551083 199551086 239883849 781597262 781597261 -781597261 -781597262 -239883849 -199551086 -199551083 -239883854 -781597263 -781597264 -239883851 -239883847 -239883856 -683421949 -683418773 -683418772 -239883852 -683418775 -683418777 -683411337 -683411338 -683411339 -683411340 -199551082 -239865330 -401747362 -401747361"/>
    </vehicle>
    <vehicle id="2" type="bus" depart="60.00">
        <route edges="385312769 -385312769 5203968#4 5203968#0 5203968#1 5203968#2 7981171#0 7981171#1 7981171#2 -203910670#10 -203910670#9 -203910670#8 -203910670#7 -203910670#6 -203910670#5 -203910670#4 -203910670#3 -203910670#2 -203910670#1 -203910670#0 -4483407#5 -4483407#4 -4483407#3 -4483407#2 -4483407#1 -4483407#0 4806323#1 4806323#2 4806323#4 4806323#6 4806323#8 144176778#0 144176778#1 144176778#2 144176778#3 4995798#0 4995798#1 4995798#2 4995798#4 4995798#5 4995798#6 4995798#7 4995798#8 204867806#1 204867807 -431732045 431732039#0 431732039#1 431732039#2 431732039#3 4614747 132741010#0 132741010#1 4521173 1097150694 595322020#0 595322020#1 595322020#2 595322020#3 83607382#0 83607382#1 83607382#2 83607382#3 83607382#5 83607382#6 83607382#8 4741291#0 4494913#0 4494913#1 4494913#2 4494913#3 4494913#4 4494913#5 4494913#6 4494913#7 4494913#8 4494913#9 4494913#10 4494913#11 4494913#12 685023881#0 685023881#1 685023881#3 4475203#0 1097150695#1 1097150695#2 156536760#1 156536760#2 1103822694 4839480 143784299 4839474#0 4839474#1 170560357 891957416 202753581#0 202753581#1 891957415#0 891957415#1 250478231#0 250478231#1 218310239#0 -145348391#7 -145348391#6 -145348391#5 -145348391#4 -145348391#2 -145348391#1 -145348391#0 -31255614 -31255613#1 -31255613#0 -118794905 -31255612 -209281127 -145348390#6 -145348390#5 -145348390#4 -145348390#3 -145348390#2 -145348390#1 -145348390#0 -45409540#5 -45409540#4 -45409540#3 -45409540#2 -45409540#1 -45409540#0 -250475788#5 -250475788#4 -250475788#3 -250475788#2 -250475788#1 -250475788#0 -45409539 30832517#0 30832517#1 30832517#2 30832517#3 209245894#0 209245894#1 209245894#2 209245894#3 209245894#4 29076486#0 29076486#1 29076486#2 29076486#3 29076486#4 29076486#5 29076486#6 29076486#7 209281893 209281892#0 209281892#1 209281892#2 209281886 249287055#0 249287055#1 249287051#0 249287051#1 30832271 -30832283#1 -30832283#0 -24232511#4 -24232511#3 -24232511#2 -24232511#1 -24232511#0 30726509#0 30726861#0 30726861#1 30726861#2 30726861#3 30726861#4 30726861#5 30726896#0 30726907"/>
    </vehicle>
    <vehicle id="3" type="bus" depart="90.00">
        <route edges="585960770#1 -24247609 24247608#1 585960771#1 225017488#0 225017488#1 225017488#2 225017488#3 225017488#4 225017488#5 5203964#0 5203964#1 5203964#2 5203964#3 5203966 5203965#0 5203965#1 275114479#0 275114479#2 275114479#3 275114479#4 80334215#0 80334215#1 -972900201#1 -972900201#0 382886203#0 382886203#1 382886186#0 382886186#1 382892934#0 382892934#1 382886582#0 382886582#1 -225631527#2 -225631527#1 -5203959 -45838561 -5203960#1 -389584479#2 -389584479#1 -389584479#0 389584478#0 158366451#1 158366451#2 942627347#0 942627347#1 888706268 156831894#1 942627350 158366453#0 158366453#1 158366453#2 263438817#0 263438817#1 263438817#2 263438817#3 263438817#4 263438817#5 263438817#6 263438817#7 -120316916 -24299866#24 -24299866#23 -24299866#22 -24299866#21 -24299866#20 -24299866#19 -24299866#18 -24299866#16 -24299866#15 -24299866#14 -24299866#13 -24299866#12 -24299866#11 -24299866#9 -24299866#8 -24299866#7 -24299866#6 -24299866#5 -24299866#3 -24299866#2 -24299866#1 120316914#0 120316914#1 120316914#2 120316914#3 6439043#0 6439043#1 6439043#2 6439043#3 6439043#4 6439043#5 6439043#6 20903773#1 20903773#2 20903773#3 20903773#4 20904323#0 20904323#1 -20904356#4 -20904356#3 -20904356#2 -20904356#1 -20904356#0"/>
    </vehicle>
    <vehicle id="4" type="bus" depart="120.00">
        <route edges="114001660#2 114001660#3 45105826#0 45105826#1 -595322020#3 -595322020#2 -595322020#1 -595322020#0 -1097150694 -4521173 -132741010#1 -132741010#0 132741009 132741018#1 132741018#2 -24245921#6 -24245921#5 -24245921#4 -24245921#3 -24245921#1 -24245921#0 132741011#5 132741026#0 132741026#1 132741026#2 -132741026#2 -132741026#1 -132741026#0"/>
    </vehicle>
    <vehicle id="5" type="bus" depart="150.00">
        <route edges="-372449781#1 -372449781#0 -479761373#3 -479761373#1 -479761373#0 -372448044#1 -372448044#0 -24299866#23 -24299866#22 -24299866#21 -24299866#20 -24299866#19 -24299866#18 -24299866#16 -24299866#15 -24299866#14 -24299866#13 -24299866#12 -24299866#11 -24299866#9 -24299866#8 -24299866#7 -24299866#6 -24299866#5 -24299866#3 -24299866#2 -24299866#1 1102403762 4548426#0 4548426#1 4548426#2 4548426#3 202754595#0 202754595#1 202754595#2 202754595#3 202754596#1 -242773838#2 -242773838#1 -242773838#0 -202753991#5 -202753991#4 -202753991#3 -202753991#2 -202753991#1 -202753991#0 4677738 -4677739#1 -4677739#0 -587076749 587076747 402270041 402270040#0 402270040#1 -1185565873#1 -730099771#4 -730099771#3 -730099771#2 -730099771#1 -730099771#0 -4570538 118186240 196934180#0 4570588#2 4570588#3 4570588#4 4570588#5 4570588#6 24324082 24324084 24324076 80241979 -24324077 24324148 3469116 33891164 33891162 149795898 24732714 24732688 234046172 26789101 43667546 315215585 234039611 198749008 198749009 92409261 198851355 198851356 4017048 255827171 94939652 94939104 82466793 82466792 219271229 94939330 94939658 238384941 4981543 4981542 241187571 2818 52712110 163317233 2820 442727075 32523780 32523781 52712125 52712108 32591183 31875423 32524925 -4677098 239826685 24713695 239826687 251710793 4827921 -908241750 -908241751 -4827920 228935752 239826686 4892300 -4698064#6 -4698064#5 -4698064#4 -4698064#3 -4698064#2 -4698064#1 -4698064#0 239822741 4598967 4892291 -181884572 -327163102 -181884578 -181884575 -200360644 -200360642 -327163101 -4598964 -8116522 -1074320552 -1074320553 -8116521 -1128192354#1 -1128192354#0 -32621026#2 -32621026#1 -32621026#0 32621026#0 32621026#1 32621026#2 1128192354#0 1128192354#1 8116521 1074320553 1074320552 8116522 4598964 327163101 200360642 200360644"/>
    </vehicle>
    <vehicle id="7" type="bus" depart="210.00">
        <route edges="26198727#2 735353346#1 480413208#0 480413208#1 480413208#2 480413209 257181875 26198709#0 26198709#1 26198709#3 4483408#0 4483408#1 4483408#4 571480486#1 571480485#0 571480485#1 571480485#2 225017489#1 225017489#2 225017491#1 225017491#2 225017491#3 225017491#4 -203910670#6 -203910670#5 -203910670#4 -203910670#3 -203910670#2 -203910670#1 -203910670#0 -4483407#5 -4483407#4 -4483407#3 -4483407#2 -4483407#1 -4483407#0 4806323#1 4806323#2 4806323#4 4806323#6 4806323#8 144176778#0 144176778#1 144176778#2 144176778#3 144176778#4 144176778#5 144176778#6 144176778#7 972410213 4713080 972410214 412175191#1 412175191#2 164090947#0 4803254 4803257#0 4803257#1 4803260 15816853 39891126 4869276#1 4869276#2 41276784 4256320#0 4256320#1 4256318#0 25575447#0 25575447#1 25575447#2 129775958 -31020498 -383072335#1 -383072335#0 1103806605 383072334#0 383072334#2 1103806604#0 1103806604#2 4752511#0 5797228 4371111 734626943 383069097 4352334#0 4352334#1 -4337106#3 -4337106#2 -4337106#1 -25419475#20 -25419475#19 -25419475#18 -25419475#17 -25419475#16 -25419475#15 -25419475#13 -25419475#12 -25419475#10 -25419475#9 -25419475#8 -25419475#6 -25419475#5 -25419475#4 -25419475#3 -25419475#2 -25419475#1 -198964098#3 -198964098#1 -985355793#1 -144454791#1 -144454791#0 -177278143 -177278142 -180596537 45075233#0 45075233#1 140570266#0 140570266#1 550250858 579672160 579672157#0 579672157#1 140570268 4281194#0 4281194#1 171460641 146937487 598333083 598333082#0 598333082#1 939539182 939539183 939539181 226309424 939539177 223733216#0 223733216#1 421095629 421095631 180596544 177278146 421095632 24298328 421095634 217020764"/>
    </vehicle>
    <vehicle id="8" type="bus" depart="240.00">
        <route edges="-37718298#0 -24317328 24317312#5 24317312#6 24317312#7 18135351#2 4301348 4301347#0 4301347#1 4301347#2 975640819#0 975640819#1 -199095255#9 -199095255#8 -199095255#7 -199095255#6 -199095255#5 -199095255#4 -199095255#3 -199095255#2 -199095255#1 -133550883 -133550892 -974849858 -144597766#3 -144597766#2 -144597766#1 -144597766#0 -144597764#6 -144597764#5 -144597764#4 -144597764#3 -144597764#2 -144597764#1 -144597764#0 -199095127#2 -199095127#1 -199095127#0 -180579432#9 -180579432#7 -180579432#6 -180579432#5 -180579432#4 -180579432#3 -180579432#2 -180579432#1 -180579432#0 6182158#0 6182158#1 6182158#2 6182158#3 6182158#10 6182158#11 6182158#12 6182158#14 6182158#15 1103797413 6182152#0 6182152#1 6182153#0 6182153#1 4701544#0 4701544#1 209249182#0 209249182#1 209249182#2 209249182#3 209249182#4 209249182#5 209249182#6 209249182#7 209249182#8 209249182#9 209249182#10 209249182#11 209249182#12 209249182#13 209249182#14 202737433#1 202737432#0 202737432#1 202737432#2 202737432#3 202737432#4 742377812#0 742377812#1 4745087 198642281#0 45569652 417627767 45360552 -209263579 -383167847 190360290 383167848 32410 1126700706 124452933 24324609 45494754 114331028 118222680#0 118222680#1 92146016 92146012 219273310 16682267 16682270#0 16682270#1 16682270#2 203405678 152135170 397336690 317578231 60310293 23049213 3469484 339379778 490760601 490761767 348214164 348214165 490760602 404191022 404191023 490760639 499958246 571037596 571037598 457084756 501770283 484833312 490761768 457084758 457084759 421991088 489042927 484833292 37852069 37852068 37852067 37852072 484787458 484787459 401484481 56699865 56699863 35066592 22889428 143784660 143784661 22889403 22889404 23745004 39899874 39899876 23745003 22901118 22901120 256751475 4519095 160682189 256751477 136457071 136457073 69044619 69044639 4519096 4006078 113143233 113143237 258978979 1074799447 27001989 143888219 6181638 6181642 6181567 164857946 333493187 258978977 241161449#0 241161449#1"/>
    </vehicle>
    <vehicle id="9" type="bus" depart="270.00">
        <route edges="4548377#4 -4548377#4 -4548377#3 -4548377#2 -4548377#1 -4494926#23 -4494926#22 -4494926#20 -4494926#18 -4494926#17 -4494926#16 -4494926#15 -4494926#14 -4494926#13 -4494926#12 -4494926#10 -4494926#7 725686376#0 725686376#1 4844456 4713057#0 4713057#2 4713057#3 4713057#4 114001660#0 114001660#1 114001660#2 114001660#3 45105826#0 45105826#1 -595322020#3 -595322020#2 -595322020#1 -595322020#0 -1097150694 -4521173 -132741010#1 -132741010#0 132741009 4642285#0 4642285#1 4642285#2 4642285#3 33175470#1 33175470#2 33175470#3 33175470#4 47172045#0 47172044 4642284 33175469#0 33175469#2 47171928#0 4642283#1 11340950#0 11340950#1 164087244#0 164087244#1 11340931#0 11340931#1 129761317#0 129761317#1 9787931 173062867 27109714 27109719 253842942 378684502#0 475087506#0 475087506#1 1103815102 4571965 97235946 1103810533 82101196 386495221#0 386495221#1 386495221#2 386495221#3 1876#0 1876#1 951316485 951316484 142414427 -8227652#7 -8227652#6 -8227652#5 -8227652#4 -8227652#3 -10750732#3 -10750732#2 -10750732#1 -10750732#0"/>
    </vehicle>
    <vehicle id="10" type="bus" depart="300.00">
        <route edges="45382159#1 45382159#2 -45382159#2 -45382159#1 -45382159#0 -30879278#4 -30879278#3 30879279 30879230#1 30879253#0 30879253#1 -30879252#2 -30879252#1 -30879252#0 209282117#0 209282117#1 209282117#2 209282117#4 30878916 -30878902#5 -30878902#4 -30878902#3 -30878902#1 -30878902#0 -250475788#5 -250475788#4 -250475788#3 -250475788#2 -250475788#1 -250475788#0 -45409539 -209246299#4 -209246299#3 -209246299#1 -209246299#0 -29076444#8 -29076444#7 -29076444#6 -29076444#5 -29076444#4 30880741#0 30880741#2 80239591#0 80239591#1 80239591#2 80239591#3 -209242512#6 -209242512#5 -209242512#4 -209242512#3 -209242512#2 -209242512#1 -209242512#0 -30880045#5 -30880045#4 -30880045#3 -30880045#0 209242511 31000814#0 4470843#1 4470843#2 536214137#0 536214137#1 31000815 31000816#0 31000816#1 31000816#2 249121830#0 249121830#1 257590896 257658421#0 257658421#1 257658419#0 257658419#1 257658422 272344765 1133499075 257658423 1133499062 247132527#0 247132527#1 107204091 238093292 238093299#1 238093297 238093294 238093293 238093291 238095556 238095555 249121829 247132523 32395 107204097 1123138917 2425 1123138913 4272906 34083614 32267"/>
    </vehicle>
    <vehicle id="11" type="bus" depart="330.00">
        <route edges="-708081824#0 708081824#0 708081824#1 708081824#2 -177278144#4 -177278144#3 -177278144#2 -177278144#1 4337106#1 4337106#2 4337106#3 28669531#0 28669531#2 28322078 60103745#0 23113258 383070266 383070265#0 383070265#1 986063225#0 986063225#1 1103806606 383072335#0 383072335#1 31020498 41852862 25575448 421693884 187917795 127394730 595650583 4301078 594888682 41276782 41276783 4869273#0 4869272 4764313 4764315 69067205 69067225 4803181 417402882#0 417402882#1 164087240#0 5204137 164087244#0 164087244#1 11340931#0 11340931#1 164087248 114425499 580990873 114425506 119506053 119506173 288485067 114425507#0 114425504#0 114425504#1 114425504#2 275577739 275114462#1 275114462#2 275114462#3 -5203965#1 -5203965#0 -5203966 -5203964#3 -5203964#2 -5203964#1 -5203964#0 -8515615#8 -8515615#7 -8515615#6 -8515615#5 -8515615#4 -8515615#3 -8515615#2 -8515615#1 -8515615#0 188742459#1 275573119#0 275573119#1 188742458#0 188742458#1 188742458#2 188742458#3 206177929 202876582 251702970#0 251702970#1 251702969 225018117#0 225018117#1 251261265 -251261265"/>
    </vehicle>
    <vehicle id="13" type="bus" depart="390.00">
        <route edges="-209250806#21 -209250806#20 -209250806#18 -209250806#15 -209250806#9 -209250806#8 -209250806#6 -209250806#5 -209250806#3 -209250806#2 -209250806#1 -2118 4696644#0 4764009 4764011 4764012 417402315 124452930 4798879 4764310 736368180 4287403 380554728 93228761 205818724#0 205818724#1 69067205 69067225 4803181 417402882#0 417402882#1 164087240#0 5204137 164087244#0 164087244#1 11340931#0 11340931#1 164087248 114425499 580990873 114425506 119506053 119506173 288485067 114425507#0 114425504#0 114425504#1 114425504#2 275577739 275114462#1 275114462#2 275114462#3 -5203965#1 -5203965#0 -5203966 -5203964#3 -5203964#2 -5203964#1 -5203964#0 -8515615#8 -8515615#7 -8515615#6 -8515615#5 -8515615#4 -8515615#3 -8515615#2 -8515615#1 -8515615#0 188742459#1 275573119#0 275573119#1 188742458#0 188742458#1 188742458#2 188742458#3 24275165 206177930#0 206177930#1 206177930#3 206174219#0 206174219#1 206174219#2 206174219#3 206174219#4 223298256#0 223298256#1 -223298256#1"/>
    </vehicle>
    <vehicle id="14" type="bus" depart="420.00">
        <route edges="4798846#0 4798846#1 257885010#0 257885010#1 257885010#2 226151434 32565783#0 4296031#9 4296031#10 69067200 736368261 736368260 4296033 93230126#0 93230126#1 144176631#0 144176631#1 93230129 4764318#0 4764318#1 4764318#2 4764318#3 143755503#0 143755503#1 143755503#2 143755503#3 143755503#4 143755503#6 143755503#7 143755503#8 143755503#10 143755503#11 143755503#13 4411863#2 4411863#4 4411864 143753233 939539207#0 939539207#1 4301352#0 4301352#1 4301352#2 939539205#0 939539205#1 939539205#2 939539205#3 939539205#4 939539203#0 939539203#1 939539202 4295451#0 4295451#1 4295451#2 4295451#3 4295451#4 4295451#5 939539204 598321348#0 -102268152#0 -421676867 4422988 -18520721#1 -18520721#0 -18520719 -177450945#9 -177450945#7 -177450945#6 -177450945#5 -177450945#4 -177450945#3 -177450945#2 -177450945#1 -177450945#0 -28265754#7 -28265754#6 24299012#0 24299012#1 24299012#2"/>
    </vehicle>
    <vehicle id="16" type="bus" depart="480.00">
        <route edges="206879427#0 206879427#1 200354555 200342180 200342178 336754408 156099312 206879118 164394058 164389297 206878366 206878365 206878363 3701035 4287438 1078937389 4287439 164390705 3654815 430646063 430646062 671409474 3654806 117219290 117219275 39888849 39888847 772921248 772921247 26961464 26961462 27172304 106797790 379589868 431351130 45050989 431351126 143885166 133081905 431351544 106797785 106797780 386194381 386194383 386194385 162006130 27109881 123103651 27109882 45773883 45591878 45591879 10262439 975680787 10262442 45773620 200051860#0 200051860#1 119028145#0 119028145#1 386959075 386959076 1074240853 1735 205818337 22731427 163763584 4287401 4784924 129627171 380554727 69067201 736368181 4798872 69067218 4763830 4345001 4345002#0 4345002#1 3469493 579403732 579403734 4470835 1801 1126700706 124452933 3469486 216530233 478853689 478853369#1 -22731338 202753580 20279843 250478229#0 250478229#1 250478229#2 250478229#4 250478229#5 1039370199 553931253#0 553931253#2 -889975987#3 -889975987#2 -889975987#1 -889975987#0 -554903310#8 -554903310#7 -554903310#6 -554903310#5 -554903310#4 -554903310#3 -554903310#2 -554903310#1 -554903310#0 889977005#1 889977005#2"/>
    </vehicle>
    <vehicle id="18" type="bus" depart="540.00">
        <route edges="4648621#0 -4648621#0 -4648620#1 -4648620#0 4681687#4 4681687#5 4681687#6 45049558 82101198 1762#0 1762#1 119028145#0 119028145#1 386959075 386959076 1074240853 1735 205818337 22731427 163763584 4287401 4784924 129627171 380554727 69067201 736368181 4798872 4798873 4764320#0 4764320#1 417402319 4829972 28379982#0 28379982#1 2118 209250806#1 209250806#2 209250806#3 209250806#5 209250806#6 209250806#8 209250806#9 209250806#15 209250806#18 209250806#20 209250806#21 209250806#22 209250806#23 209250806#24 209250806#25 209250806#26 209250806#27 209250806#28 209250806#29 -1103797412 -1103797413 -6182158#15 6182158#15 -1103797411 -24299579#2 -24299579#1 -24299579#0 24299417#12 24299417#13 24299417#14 28216142 28216143#0 -24317553#6 -24317553#5 -24317553#4 24317553#4"/>
    </vehicle>
    <vehicle id="19" type="bus" depart="570.00">
        <route edges="4904308#1 4904308#2 4904308#3 4904308#4 -4904309#1 -4904309#0 -4904310 -8154765#1 45788183#1 368523978#0 368523978#1 22752433#0 22752433#1 368523977 4904402#4 4904403 4904401#0 4904401#1 4904401#2 4904401#3 4904401#4 4904401#5 4904401#6 4904401#7 4904401#8 4904401#9 4904401#10 24324148 3469116 33891164 33891162 149795898 24732714 24732688 234046172 26789101 43667546 315215585 234039611 198749008 198749009 92409261 198851355 8597407 24703988 315215591 26282030 160286335 23654472"/>
    </vehicle>
</routes>
