<?xml version="1.0" encoding="UTF-8"?>

<!-- generated on 2023-07-03 14:34:30.733750 by randomTrips.py v1_18_0+0000-03ecfdea036
<configuration>
    <net-file value="glasgow.net.xml"/>
    <output-trip-file value="passenger_trips.xml"/>
    <route-file value="passenger_routes.rou.xml"/>
    <trip-attributes value="color=&quot;255,255,255&quot;"/>
    <end value="600"/>
    <vehicle-class value="passenger"/>
    <period value="0.1"/>
</configuration>
-->

<routes xmlns:xsi="http://www.w3.org/2001/XMLSchema-instance" xsi:noNamespaceSchemaLocation="http://sumo.dlr.de/xsd/routes_file.xsd">
    <vType id="passenger" vClass="passenger" color="255,255,255"/>
    <trip id="0" depart="0.00" from="24317759#0" to="-143734638#1" type="passenger"/>
    <trip id="1" depart="0.10" from="-4494913#0" to="-369581050#5" type="passenger"/>
    <trip id="2" depart="0.20" from="386987320" to="30726861#7" type="passenger"/>
    <trip id="3" depart="0.30" from="54643436" to="-20904694#0" type="passenger"/>
    <trip id="4" depart="0.40" from="-892866159#1" to="-14593584#0" type="passenger"/>
    <trip id="5" depart="0.50" from="-30880180#1" to="192333654#0" type="passenger"/>
    <trip id="6" depart="0.60" from="-143755503#1" to="-30879353#5" type="passenger"/>
    <trip id="7" depart="0.70" from="250475790#0" to="209248457#1" type="passenger"/>
    <trip id="8" depart="0.80" from="-30880531#2" to="24275155" type="passenger"/>
    <trip id="9" depart="0.90" from="45683787#1" to="-1088915060#0" type="passenger"/>
    <trip id="10" depart="1.00" from="45587335#2" to="30880775#0" type="passenger"/>
    <trip id="11" depart="1.10" from="-49748091" to="-24317688#1" type="passenger"/>
    <trip id="12" depart="1.20" from="8149218#2" to="-544352982" type="passenger"/>
    <trip id="13" depart="1.30" from="-209242512#3" to="-220414736#0" type="passenger"/>
    <trip id="14" depart="1.40" from="4764010" to="24299315#0" type="passenger"/>
    <trip id="15" depart="1.50" from="4564976#2" to="385981709#1" type="passenger"/>
    <trip id="16" depart="1.60" from="202753994#13" to="8752502#0" type="passenger"/>
    <trip id="17" depart="1.70" from="-730248302#1" to="219273311#1" type="passenger"/>
    <trip id="18" depart="1.80" from="46493559" to="24317041#1" type="passenger"/>
    <trip id="19" depart="1.90" from="4865962#6" to="23844253#4" type="passenger"/>
    <trip id="20" depart="2.00" from="30880816#0" to="-167636207" type="passenger"/>
    <trip id="21" depart="2.10" from="-31546821#1" to="-45885962" type="passenger"/>
    <trip id="22" depart="2.20" from="-203957021#3" to="-386496546#5" type="passenger"/>
    <trip id="23" depart="2.30" from="-223298257#19" to="-45568793#1" type="passenger"/>
    <trip id="24" depart="2.40" from="24317627" to="-772221716" type="passenger"/>
    <trip id="25" depart="2.50" from="-676237426" to="-30880849#0" type="passenger"/>
    <trip id="26" depart="2.60" from="-4411916#1" to="78407717#1" type="passenger"/>
    <trip id="27" depart="2.70" from="24738222#1" to="24299944#9" type="passenger"/>
    <trip id="28" depart="2.80" from="-24317954" to="384884018" type="passenger"/>
    <trip id="29" depart="2.90" from="-24317634#0" to="-80338334" type="passenger"/>
    <trip id="30" depart="3.00" from="9702626#1" to="24738222#2" type="passenger"/>
    <trip id="31" depart="3.10" from="20904882#1" to="30879129#2" type="passenger"/>
    <trip id="32" depart="3.20" from="4744978#3" to="4476793#0" type="passenger"/>
    <trip id="33" depart="3.30" from="-32877134#1" to="-149920063#1" type="passenger"/>
    <trip id="34" depart="3.40" from="-4712905#11" to="-45359877#1" type="passenger"/>
    <trip id="35" depart="3.50" from="-30879279" to="7997253#4" type="passenger"/>
    <trip id="36" depart="3.60" from="5002646" to="-485899794#3" type="passenger"/>
    <trip id="37" depart="3.70" from="257181869#0" to="-83239769#1" type="passenger"/>
    <trip id="38" depart="3.80" from="69067201" to="143769306#4" type="passenger"/>
    <trip id="39" depart="3.90" from="-4387519" to="-4344909" type="passenger"/>
    <trip id="40" depart="4.00" from="209249182#10" to="-45074078#0" type="passenger"/>
    <trip id="41" depart="4.10" from="23332156#0" to="583981503" type="passenger"/>
    <trip id="42" depart="4.20" from="-8073063#2" to="-35271836#0" type="passenger"/>
    <trip id="43" depart="4.30" from="990822936#1" to="19797765#2" type="passenger"/>
    <trip id="44" depart="4.40" from="-20904882#0" to="-169980325#0" type="passenger"/>
    <trip id="45" depart="4.50" from="-23149625#4" to="24317688#1" type="passenger"/>
    <trip id="46" depart="4.60" from="4521175#0" to="101262451#3" type="passenger"/>
    <trip id="47" depart="4.70" from="-196934179#2" to="-8073971#4" type="passenger"/>
    <trip id="48" depart="4.80" from="986060865#1" to="204735312#4" type="passenger"/>
    <trip id="49" depart="4.90" from="8515615#1" to="4865992#1" type="passenger"/>
    <trip id="50" depart="5.00" from="-114456730#1" to="37739495#2" type="passenger"/>
    <trip id="51" depart="5.10" from="30624744#7" to="20902920#1" type="passenger"/>
    <trip id="52" depart="5.20" from="-4411910#1" to="24883107#3" type="passenger"/>
    <trip id="53" depart="5.30" from="-23314822#4" to="1136445716#0" type="passenger"/>
    <trip id="54" depart="5.40" from="114425506" to="8080069#1" type="passenger"/>
    <trip id="55" depart="5.50" from="4995800#0" to="-45074754#2" type="passenger"/>
    <trip id="56" depart="5.60" from="163419312" to="-28270377" type="passenger"/>
    <trip id="57" depart="5.70" from="688813669#1" to="4981556#0" type="passenger"/>
    <trip id="58" depart="5.80" from="-45684723#5" to="24325214#6" type="passenger"/>
    <trip id="59" depart="5.90" from="24298717#1" to="-24317525#1" type="passenger"/>
    <trip id="60" depart="6.00" from="4381325#2" to="20904217" type="passenger"/>
    <trip id="61" depart="6.10" from="4476038#3" to="204735910#0" type="passenger"/>
    <trip id="62" depart="6.20" from="-10111207" to="-4991182#9" type="passenger"/>
    <trip id="63" depart="6.30" from="-12786139#0" to="74607893#5" type="passenger"/>
    <trip id="64" depart="6.40" from="5203957#2" to="4712905#10" type="passenger"/>
    <trip id="65" depart="6.50" from="-4627911#5" to="-188742458#1" type="passenger"/>
    <trip id="66" depart="6.60" from="5171325" to="8029053#4" type="passenger"/>
    <trip id="67" depart="6.70" from="-20901080#10" to="167636211#1" type="passenger"/>
    <trip id="68" depart="6.80" from="-20127308#6" to="4381460" type="passenger"/>
    <trip id="69" depart="6.90" from="4393018#1" to="-24298781#0" type="passenger"/>
    <trip id="70" depart="7.00" from="143734638#1" to="209284796#6" type="passenger"/>
    <trip id="71" depart="7.10" from="-438870170#1" to="4995516#0" type="passenger"/>
    <trip id="72" depart="7.20" from="-9048029#3" to="-31000811#1" type="passenger"/>
    <trip id="73" depart="7.30" from="20279772#1" to="386066799#0" type="passenger"/>
    <trip id="74" depart="7.40" from="-30726638#0" to="-48464395#0" type="passenger"/>
    <trip id="75" depart="7.50" from="985861987#2" to="257885012#0" type="passenger"/>
    <trip id="76" depart="7.60" from="-996957030#0" to="202753590#11" type="passenger"/>
    <trip id="77" depart="7.70" from="-23948646" to="-372449781#0" type="passenger"/>
    <trip id="78" depart="7.80" from="-4904401#9" to="24247541#1" type="passenger"/>
    <trip id="79" depart="7.90" from="-32921840#0" to="-355355243#0" type="passenger"/>
    <trip id="80" depart="8.00" from="-202753590#11" to="24317778#0" type="passenger"/>
    <trip id="81" depart="8.10" from="-32877124#3" to="60319982#0" type="passenger"/>
    <trip id="82" depart="8.20" from="4856742#1" to="-202753994#2" type="passenger"/>
    <trip id="83" depart="8.30" from="-37132390#0" to="288485068" type="passenger"/>
    <trip id="84" depart="8.40" from="-30879473#4" to="-24299022#0" type="passenger"/>
    <trip id="85" depart="8.50" from="78340094#0" to="235044113#4" type="passenger"/>
    <trip id="86" depart="8.60" from="139718604#6" to="45074753#7" type="passenger"/>
    <trip id="87" depart="8.70" from="4564978#5" to="-30832284#0" type="passenger"/>
    <trip id="88" depart="8.80" from="-209259580#0" to="1103806607" type="passenger"/>
    <trip id="89" depart="8.90" from="-9048034#0" to="149920062#2" type="passenger"/>
    <trip id="90" depart="9.00" from="381202307" to="294060699#4" type="passenger"/>
    <trip id="91" depart="9.10" from="939539197" to="-225017488#3" type="passenger"/>
    <trip id="92" depart="9.20" from="-8080070#4" to="-553931253#7" type="passenger"/>
    <trip id="93" depart="9.30" from="4865962#3" to="-4381338#2" type="passenger"/>
    <trip id="94" depart="9.40" from="-28265754#7" to="12531502#2" type="passenger"/>
    <trip id="95" depart="9.50" from="-892866159#0" to="-45570241" type="passenger"/>
    <trip id="96" depart="9.60" from="-41483074#2" to="7277343#1" type="passenger"/>
    <trip id="97" depart="9.70" from="1046745408#1" to="4866003" type="passenger"/>
    <trip id="98" depart="9.80" from="20898561#3" to="-177278144#2" type="passenger"/>
    <trip id="99" depart="9.90" from="99798486" to="4717439" type="passenger"/>
    <trip id="100" depart="10.00" from="83812861#0" to="736368179" type="passenger"/>
    <trip id="101" depart="10.10" from="4764319" to="-250475788#2" type="passenger"/>
    <trip id="102" depart="10.20" from="15090981#10" to="-31255613#0" type="passenger"/>
    <trip id="103" depart="10.30" from="-8074010#1" to="-190200556#1" type="passenger"/>
    <trip id="104" depart="10.40" from="-732295445#5" to="940159536#2" type="passenger"/>
    <trip id="105" depart="10.50" from="-438870170#4" to="45073977#0" type="passenger"/>
    <trip id="106" depart="10.60" from="114992773#1" to="1021308417#1" type="passenger"/>
    <trip id="107" depart="10.70" from="8150801" to="985983952#1" type="passenger"/>
    <trip id="108" depart="10.80" from="20904356#2" to="374975169#1" type="passenger"/>
    <trip id="109" depart="10.90" from="-24316933#1" to="-4677742#1" type="passenger"/>
    <trip id="110" depart="11.00" from="83812856#0" to="23948632#1" type="passenger"/>
    <trip id="111" depart="11.10" from="203910672#0" to="430737809#1" type="passenger"/>
    <trip id="112" depart="11.20" from="-18099429#0" to="24246807#1" type="passenger"/>
    <trip id="113" depart="11.30" from="167636209" to="4844451#2" type="passenger"/>
    <trip id="114" depart="11.40" from="-24317385#2" to="8215447#1" type="passenger"/>
    <trip id="115" depart="11.50" from="-20448005#4" to="-291840846#2" type="passenger"/>
    <trip id="116" depart="11.60" from="242045381" to="30624748#3" type="passenger"/>
    <trip id="117" depart="11.70" from="-355557040#4" to="-24246920#6" type="passenger"/>
    <trip id="118" depart="11.80" from="544352990" to="-4344904#0" type="passenger"/>
    <trip id="119" depart="11.90" from="23948645#5" to="24317368#1" type="passenger"/>
    <trip id="120" depart="12.00" from="-882615517" to="24246761#6" type="passenger"/>
    <trip id="121" depart="12.10" from="196934179#8" to="781155030" type="passenger"/>
    <trip id="122" depart="12.20" from="-30832470#2" to="369581050#4" type="passenger"/>
    <trip id="123" depart="12.30" from="-372449232#1" to="-83239779#0" type="passenger"/>
    <trip id="124" depart="12.40" from="28387929#1" to="-4712909#5" type="passenger"/>
    <trip id="125" depart="12.50" from="-4712909#2" to="4337108#3" type="passenger"/>
    <trip id="126" depart="12.60" from="-202753992#2" to="143755503#6" type="passenger"/>
    <trip id="127" depart="12.70" from="995975737#0" to="986063225#0" type="passenger"/>
    <trip id="128" depart="12.80" from="-202753994#11" to="-31092353" type="passenger"/>
    <trip id="129" depart="12.90" from="-438870170#4" to="772454801" type="passenger"/>
    <trip id="130" depart="13.00" from="5204077#3" to="5204015#3" type="passenger"/>
    <trip id="131" depart="13.10" from="-669011894#1" to="-24317757#5" type="passenger"/>
    <trip id="132" depart="13.20" from="4705647#0" to="31255483#1" type="passenger"/>
    <trip id="133" depart="13.30" from="24298973#7" to="951316484" type="passenger"/>
    <trip id="134" depart="13.40" from="255159951#5" to="-1102484467#3" type="passenger"/>
    <trip id="135" depart="13.50" from="457716028" to="-4712905#6" type="passenger"/>
    <trip id="136" depart="13.60" from="27026763#0" to="7996846#4" type="passenger"/>
    <trip id="137" depart="13.70" from="-24298861#0" to="-23948629#1" type="passenger"/>
    <trip id="138" depart="13.80" from="-22752435#8" to="222709044" type="passenger"/>
    <trip id="139" depart="13.90" from="-4475800#5" to="24299417#6" type="passenger"/>
    <trip id="140" depart="14.00" from="355355973#1" to="-30879962#0" type="passenger"/>
    <trip id="141" depart="14.10" from="24317517#3" to="-45102225#1" type="passenger"/>
    <trip id="142" depart="14.20" from="15534259" to="60319844#0" type="passenger"/>
    <trip id="143" depart="14.30" from="4750193#0" to="-209249182#2" type="passenger"/>
    <trip id="144" depart="14.40" from="-9048034#0" to="-4555866#6" type="passenger"/>
    <trip id="145" depart="14.50" from="-10261433" to="4470832#1" type="passenger"/>
    <trip id="146" depart="14.60" from="24317688#0" to="-45073140#8" type="passenger"/>
    <trip id="147" depart="14.70" from="41559775#0" to="218601545#3" type="passenger"/>
    <trip id="148" depart="14.80" from="-940159535#2" to="-11339908#7" type="passenger"/>
    <trip id="149" depart="14.90" from="-20279748" to="5218770#0" type="passenger"/>
    <trip id="150" depart="15.00" from="595322020#2" to="209249182#0" type="passenger"/>
    <trip id="151" depart="15.10" from="4712905#11" to="24246139#0" type="passenger"/>
    <trip id="152" depart="15.20" from="-24300001#1" to="-24289475#1" type="passenger"/>
    <trip id="153" depart="15.30" from="-4638062#0" to="585960770#1" type="passenger"/>
    <trip id="154" depart="15.40" from="45407595#1" to="4865990#1" type="passenger"/>
    <trip id="155" depart="15.50" from="584927032#7" to="-30880957#1" type="passenger"/>
    <trip id="156" depart="15.60" from="-41483058#2" to="-22736759#2" type="passenger"/>
    <trip id="157" depart="15.70" from="4483819#5" to="5218785#1" type="passenger"/>
    <trip id="158" depart="15.80" from="-81878797" to="24317424#2" type="passenger"/>
    <trip id="159" depart="15.90" from="-24316918#1" to="754538216#1" type="passenger"/>
    <trip id="160" depart="16.00" from="4876190#2" to="891257684" type="passenger"/>
    <trip id="161" depart="16.10" from="4570461#4" to="5204092#8" type="passenger"/>
    <trip id="162" depart="16.20" from="-14103691#3" to="41484794#3" type="passenger"/>
    <trip id="163" depart="16.30" from="-4865968#1" to="7665267#5" type="passenger"/>
    <trip id="164" depart="16.40" from="45492031#1" to="4904182#2" type="passenger"/>
    <trip id="165" depart="16.50" from="4570461#3" to="-452545580#2" type="passenger"/>
    <trip id="166" depart="16.60" from="45073976#3" to="-23314873#0" type="passenger"/>
    <trip id="167" depart="16.70" from="4981556#1" to="4862621" type="passenger"/>
    <trip id="168" depart="16.80" from="-30880805#3" to="4592199#0" type="passenger"/>
    <trip id="169" depart="16.90" from="118353468#0" to="-4745072#2" type="passenger"/>
    <trip id="170" depart="17.00" from="45406329" to="-37802141#5" type="passenger"/>
    <trip id="171" depart="17.10" from="-136485847" to="-30832512#4" type="passenger"/>
    <trip id="172" depart="17.20" from="-48464021#5" to="4904186#1" type="passenger"/>
    <trip id="173" depart="17.30" from="82963263#1" to="-4564972#0" type="passenger"/>
    <trip id="174" depart="17.40" from="24317849#1" to="-859771243#7" type="passenger"/>
    <trip id="175" depart="17.50" from="909240973#3" to="20901104#2" type="passenger"/>
    <trip id="176" depart="17.60" from="7996856#0" to="-23948628" type="passenger"/>
    <trip id="177" depart="17.70" from="85140702#1" to="-28265754#6" type="passenger"/>
    <trip id="178" depart="17.80" from="8227652#7" to="-4515791#4" type="passenger"/>
    <trip id="179" depart="17.90" from="-23105658#0" to="1136445710#2" type="passenger"/>
    <trip id="180" depart="18.00" from="380618974#2" to="-4856742#0" type="passenger"/>
    <trip id="181" depart="18.10" from="242773832#7" to="198962606#0" type="passenger"/>
    <trip id="182" depart="18.20" from="-77663269#1" to="23816746#0" type="passenger"/>
    <trip id="183" depart="18.30" from="-4287345#3" to="33508816#1" type="passenger"/>
    <trip id="184" depart="18.40" from="-10112177#4" to="734626943" type="passenger"/>
    <trip id="185" depart="18.50" from="20279755#0" to="37571809#7" type="passenger"/>
    <trip id="186" depart="18.60" from="41685133#0" to="29076486#1" type="passenger"/>
    <trip id="187" depart="18.70" from="-594888675#6" to="-202753992#6" type="passenger"/>
    <trip id="188" depart="18.80" from="27248046#5" to="-5204082#6" type="passenger"/>
    <trip id="189" depart="18.90" from="-4681692#4" to="478853369#0" type="passenger"/>
    <trip id="190" depart="19.00" from="357193285#1" to="-4713086#1" type="passenger"/>
    <trip id="191" depart="19.10" from="-4644950#0" to="-939539205#1" type="passenger"/>
    <trip id="192" depart="19.20" from="-8080069#2" to="-46492752#1" type="passenger"/>
    <trip id="193" depart="19.30" from="-24247541#2" to="1010182800" type="passenger"/>
    <trip id="194" depart="19.40" from="7997154#2" to="30726969#2" type="passenger"/>
    <trip id="195" depart="19.50" from="59125452#2" to="24316740" type="passenger"/>
    <trip id="196" depart="19.60" from="-4570549#2" to="209281126#2" type="passenger"/>
    <trip id="197" depart="19.70" from="-1010182800" to="-4570926#2" type="passenger"/>
    <trip id="198" depart="19.80" from="-9666386#2" to="23948645#7" type="passenger"/>
    <trip id="199" depart="19.90" from="25575447#2" to="14594220" type="passenger"/>
    <trip id="200" depart="20.00" from="10261431#4" to="-31255612" type="passenger"/>
    <trip id="201" depart="20.10" from="14103687#3" to="586855863" type="passenger"/>
    <trip id="202" depart="20.20" from="45407546" to="-255159951#2" type="passenger"/>
    <trip id="203" depart="20.30" from="-20899322#1" to="20127309#5" type="passenger"/>
    <trip id="204" depart="20.40" from="24317483#1" to="-5363040" type="passenger"/>
    <trip id="205" depart="20.50" from="45838678#0" to="4337103#0" type="passenger"/>
    <trip id="206" depart="20.60" from="28645998#0" to="-372449232#1" type="passenger"/>
    <trip id="207" depart="20.70" from="-294354171#1" to="-143734635#3" type="passenger"/>
    <trip id="208" depart="20.80" from="-38358186#0" to="158366451#2" type="passenger"/>
    <trip id="209" depart="20.90" from="4787475#0" to="-20279755#0" type="passenger"/>
    <trip id="210" depart="21.00" from="-83812856#0" to="24317735#7" type="passenger"/>
    <trip id="211" depart="21.10" from="-28721084#2" to="30880282#3" type="passenger"/>
    <trip id="212" depart="21.20" from="158734894#7" to="-4337110#1" type="passenger"/>
    <trip id="213" depart="21.30" from="257181871#0" to="-10750738#1" type="passenger"/>
    <trip id="214" depart="21.40" from="4296031#7" to="4422977#4" type="passenger"/>
    <trip id="215" depart="21.50" from="-22752432#0" to="1046745409#4" type="passenger"/>
    <trip id="216" depart="21.60" from="-24738152#1" to="8157354#4" type="passenger"/>
    <trip id="217" depart="21.70" from="188948807#0" to="-176982395#3" type="passenger"/>
    <trip id="218" depart="21.80" from="-413084933#4" to="479761373#4" type="passenger"/>
    <trip id="219" depart="21.90" from="1157030914" to="45567370#0" type="passenger"/>
    <trip id="220" depart="22.00" from="27928226" to="95996123#3" type="passenger"/>
    <trip id="221" depart="22.10" from="24232511#0" to="80371227#3" type="passenger"/>
    <trip id="222" depart="22.20" from="54635951#1" to="24300142#4" type="passenger"/>
    <trip id="223" depart="22.30" from="355559563#1" to="191473573#1" type="passenger"/>
    <trip id="224" depart="22.40" from="4677449#1" to="209281126#1" type="passenger"/>
    <trip id="225" depart="22.50" from="572200940#0" to="4258938#7" type="passenger"/>
    <trip id="226" depart="22.60" from="143734635#3" to="-4494913#1" type="passenger"/>
    <trip id="227" depart="22.70" from="-386496546#6" to="24324802#1" type="passenger"/>
    <trip id="228" depart="22.80" from="4393018#1" to="202754594#3" type="passenger"/>
    <trip id="229" depart="22.90" from="24316734#3" to="-45487150#2" type="passenger"/>
    <trip id="230" depart="23.00" from="-203910670#14" to="-4570919#3" type="passenger"/>
    <trip id="231" depart="23.10" from="-4475799#0" to="-4904308#1" type="passenger"/>
    <trip id="232" depart="23.20" from="203516659" to="-24299893#1" type="passenger"/>
    <trip id="233" depart="23.30" from="-334936749" to="30880125#0" type="passenger"/>
    <trip id="234" depart="23.40" from="30881010" to="-198951853#0" type="passenger"/>
    <trip id="235" depart="23.50" from="-82105677#5" to="20907297#2" type="passenger"/>
    <trip id="236" depart="23.60" from="-85145101" to="-30880291" type="passenger"/>
    <trip id="237" depart="23.70" from="-890046061#1" to="598905014#8" type="passenger"/>
    <trip id="238" depart="23.80" from="23315182#0" to="30880203#1" type="passenger"/>
    <trip id="239" depart="23.90" from="48509909#0" to="4411891#0" type="passenger"/>
    <trip id="240" depart="24.00" from="-741653869" to="-10760708#1" type="passenger"/>
    <trip id="241" depart="24.10" from="-533484403" to="4337125#0" type="passenger"/>
    <trip id="242" depart="24.20" from="4806323#1" to="8080067#2" type="passenger"/>
    <trip id="243" depart="24.30" from="-878894771#0" to="4301078" type="passenger"/>
    <trip id="244" depart="24.40" from="204735909#0" to="24299293#1" type="passenger"/>
    <trip id="245" depart="24.50" from="-30880537#0" to="-354340064#0" type="passenger"/>
    <trip id="246" depart="24.60" from="-9873607#2" to="-145348391#7" type="passenger"/>
    <trip id="247" depart="24.70" from="-4904298#1" to="30832443" type="passenger"/>
    <trip id="248" depart="24.80" from="-81083876" to="-24738152#2" type="passenger"/>
    <trip id="249" depart="24.90" from="128090235#3" to="-24289485" type="passenger"/>
    <trip id="250" depart="25.00" from="24299971#2" to="-144597760#1" type="passenger"/>
    <trip id="251" depart="25.10" from="-7997441" to="23105654" type="passenger"/>
    <trip id="252" depart="25.20" from="-143769306#2" to="250478229#4" type="passenger"/>
    <trip id="253" depart="25.30" from="-24298913#3" to="144597764#1" type="passenger"/>
    <trip id="254" depart="25.40" from="-17234452#1" to="-80334205" type="passenger"/>
    <trip id="255" depart="25.50" from="-30879353#8" to="-52012009#0" type="passenger"/>
    <trip id="256" depart="25.60" from="4381309#0" to="-80334205" type="passenger"/>
    <trip id="257" depart="25.70" from="430737811" to="4712905#5" type="passenger"/>
    <trip id="258" depart="25.80" from="-422092607#1" to="-20899322#0" type="passenger"/>
    <trip id="259" depart="25.90" from="-12531502#3" to="20904283" type="passenger"/>
    <trip id="260" depart="26.00" from="999684392#5" to="-656254491#1" type="passenger"/>
    <trip id="261" depart="26.10" from="250475811#1" to="45049558" type="passenger"/>
    <trip id="262" depart="26.20" from="25079070#0" to="4344883#1" type="passenger"/>
    <trip id="263" depart="26.30" from="80371227#0" to="-30879367#4" type="passenger"/>
    <trip id="264" depart="26.40" from="-129951466#4" to="-24317514#0" type="passenger"/>
    <trip id="265" depart="26.50" from="-24247436#1" to="28891837#1" type="passenger"/>
    <trip id="266" depart="26.60" from="209281888#2" to="-33175470#2" type="passenger"/>
    <trip id="267" depart="26.70" from="30880116#1" to="4411906#6" type="passenger"/>
    <trip id="268" depart="26.80" from="-24317763#1" to="24299898#1" type="passenger"/>
    <trip id="269" depart="26.90" from="42796910#1" to="-23844253#10" type="passenger"/>
    <trip id="270" depart="27.00" from="4589100#3" to="82820312#1" type="passenger"/>
    <trip id="271" depart="27.10" from="-23105647#0" to="-143769304#1" type="passenger"/>
    <trip id="272" depart="27.20" from="-46492752#0" to="30726969#2" type="passenger"/>
    <trip id="273" depart="27.30" from="81878744#3" to="-83812856#1" type="passenger"/>
    <trip id="274" depart="27.40" from="34106659" to="-203932822#0" type="passenger"/>
    <trip id="275" depart="27.50" from="30879119#2" to="24317686#0" type="passenger"/>
    <trip id="276" depart="27.60" from="-225017488#5" to="4475215#2" type="passenger"/>
    <trip id="277" depart="27.70" from="478849145#0" to="24299097#2" type="passenger"/>
    <trip id="278" depart="27.80" from="-239814052#10" to="939539198" type="passenger"/>
    <trip id="279" depart="27.90" from="4494913#7" to="-6182160#5" type="passenger"/>
    <trip id="280" depart="28.00" from="-941149808" to="-7996856#0" type="passenger"/>
    <trip id="281" depart="28.10" from="17234452#9" to="-55625385#0" type="passenger"/>
    <trip id="282" depart="28.20" from="4787473#1" to="4644900#0" type="passenger"/>
    <trip id="283" depart="28.30" from="-22731440#1" to="82212114#0" type="passenger"/>
    <trip id="284" depart="28.40" from="24317589#1" to="4677742#17" type="passenger"/>
    <trip id="285" depart="28.50" from="31000811#5" to="114331018" type="passenger"/>
    <trip id="286" depart="28.60" from="385305539" to="82938046#1" type="passenger"/>
    <trip id="287" depart="28.70" from="-4475215#4" to="4570469#2" type="passenger"/>
    <trip id="288" depart="28.80" from="20279749" to="163419238#2" type="passenger"/>
    <trip id="289" depart="28.90" from="-986060864#2" to="386496546#3" type="passenger"/>
    <trip id="290" depart="29.00" from="-4422978" to="4839473#1" type="passenger"/>
    <trip id="291" depart="29.10" from="4677739#0" to="-20904584#0" type="passenger"/>
    <trip id="292" depart="29.20" from="5204081#5" to="-4337109#1" type="passenger"/>
    <trip id="293" depart="29.30" from="121942677#1" to="24300001#0" type="passenger"/>
    <trip id="294" depart="29.40" from="-732295445#5" to="-145348390#6" type="passenger"/>
    <trip id="295" depart="29.50" from="4798846#0" to="-28671967#0" type="passenger"/>
    <trip id="296" depart="29.60" from="-30879367#5" to="4548377#5" type="passenger"/>
    <trip id="297" depart="29.70" from="-49748957#0" to="5204081#2" type="passenger"/>
    <trip id="298" depart="29.80" from="30880186#1" to="-455298083#1" type="passenger"/>
    <trip id="299" depart="29.90" from="-11339903#0" to="8032808#4" type="passenger"/>
    <trip id="300" depart="30.00" from="-20901080#1" to="37695833#0" type="passenger"/>
    <trip id="301" depart="30.10" from="15534262#0" to="4381315" type="passenger"/>
    <trip id="302" depart="30.20" from="30879119#2" to="255159951#6" type="passenger"/>
    <trip id="303" depart="30.30" from="156971636#1" to="45406893#1" type="passenger"/>
    <trip id="304" depart="30.40" from="-209245201#0" to="-355557040#5" type="passenger"/>
    <trip id="305" depart="30.50" from="30879230#2" to="-4750193#2" type="passenger"/>
    <trip id="306" depart="30.60" from="23149875#1" to="156966235#2" type="passenger"/>
    <trip id="307" depart="30.70" from="200051860#1" to="10590278#0" type="passenger"/>
    <trip id="308" depart="30.80" from="422667695" to="-5204092#9" type="passenger"/>
    <trip id="309" depart="30.90" from="30880644#1" to="-45461165#6" type="passenger"/>
    <trip id="310" depart="31.00" from="-41853481#4" to="-24247321#0" type="passenger"/>
    <trip id="311" depart="31.10" from="-28645998#1" to="-24246859#1" type="passenger"/>
    <trip id="312" depart="31.20" from="202753993#3" to="4390678" type="passenger"/>
    <trip id="313" depart="31.30" from="-26404003" to="-32921802#5" type="passenger"/>
    <trip id="314" depart="31.40" from="149920062#1" to="381386366#2" type="passenger"/>
    <trip id="315" depart="31.50" from="890905311#2" to="203910318#2" type="passenger"/>
    <trip id="316" depart="31.60" from="-452545580#3" to="-226578079" type="passenger"/>
    <trip id="317" depart="31.70" from="-286817334#2" to="-37802141#2" type="passenger"/>
    <trip id="318" depart="31.80" from="-25324875#2" to="-1184896325" type="passenger"/>
    <trip id="319" depart="31.90" from="202753590#4" to="-4548426#0" type="passenger"/>
    <trip id="320" depart="32.00" from="8752500#0" to="22287200#1" type="passenger"/>
    <trip id="321" depart="32.10" from="30879835#1" to="-24289394#0" type="passenger"/>
    <trip id="322" depart="32.20" from="4904401#0" to="174663538#5" type="passenger"/>
    <trip id="323" depart="32.30" from="4981578" to="23803932#3" type="passenger"/>
    <trip id="324" depart="32.40" from="132741018#1" to="116709790#1" type="passenger"/>
    <trip id="325" depart="32.50" from="-26303872" to="-177450945#6" type="passenger"/>
    <trip id="326" depart="32.60" from="7997160#7" to="159050999" type="passenger"/>
    <trip id="327" depart="32.70" from="4628070#5" to="-8751896#0" type="passenger"/>
    <trip id="328" depart="32.80" from="-202753994#4" to="24317720#3" type="passenger"/>
    <trip id="329" depart="32.90" from="-177461757#15" to="-24317383#3" type="passenger"/>
    <trip id="330" depart="33.00" from="209258326#1" to="-4717618#1" type="passenger"/>
    <trip id="331" depart="33.10" from="9788339#1" to="-24246761#4" type="passenger"/>
    <trip id="332" depart="33.20" from="4381465#0" to="24299866#3" type="passenger"/>
    <trip id="333" depart="33.30" from="4515791#7" to="-37571808#6" type="passenger"/>
    <trip id="334" depart="33.40" from="196934179#12" to="131860123#0" type="passenger"/>
    <trip id="335" depart="33.50" from="1026291767#0" to="4865984#1" type="passenger"/>
    <trip id="336" depart="33.60" from="9702683#1" to="-4745073#4" type="passenger"/>