<?xml version="1.0" encoding="UTF-8"?>

<!-- generated on 2023-07-03 14:36:15.816479 by randomTrips.py v1_18_0+0000-03ecfdea036
<configuration>
    <net-file value="glasgow.net.xml"/>
    <output-trip-file value="ped_trips.xml"/>
    <route-file value="ped_routes.rou.xml"/>
    <pedestrians value="True"/>
    <end value="600"/>
    <period value="5.0"/>
</configuration>
-->

<!-- generated on 2023-07-03 14:36:04 by Eclipse SUMO duarouter Version 1.18.0
<configuration xmlns:xsi="http://www.w3.org/2001/XMLSchema-instance" xsi:noNamespaceSchemaLocation="http://sumo.dlr.de/xsd/duarouterConfiguration.xsd">

    <input>
        <net-file value="glasgow.net.xml"/>
        <route-files value="ped_trips.xml"/>
    </input>

    <output>
        <output-file value="ped_routes.rou.xml"/>
        <alternatives-output value="NUL"/>
    </output>

    <time>
        <begin value="0"/>
        <end value="600"/>
    </time>

    <report>
        <no-warnings value="true"/>
        <ignore-errors value="true"/>
        <no-step-log value="true"/>
    </report>

</configuration>
-->

<routes xmlns:xsi="http://www.w3.org/2001/XMLSchema-instance" xsi:noNamespaceSchemaLocation="http://sumo.dlr.de/xsd/routes_file.xsd">
    <person id="0" depart="0.00">
        <walk edges="28662101 17980415#1 122719539#2 -122719539#1 -122719539#0 122719529#1 116050662#1 4862623#3 4862623#2 4862623#1 4862623#0 -969769502 139718604#6 -139718604#4 -139718604#2 139718604#1 -139718604#0 23706686#0 266253852 -23802666#5 23802666#4 23802666#3 23802666#2 23802666#1 -23802666#0 8751900#2 41863459#0 -131860123#0 -131860123#1 -203955671#0 -90682376 -205819136 -201700815 -1003917173 -4953265 -4953267#1 -4953267#0 26403932 4474113#0 4474113#1 28776351#1 28776351#2 28776351#3 28776351#4 4494911#0 4494911#1 4494911#2 4494911#3 4494911#4 -4494912#0 -4494912#1 4494912#2 -4494912#3 -4494912#4 -4494912#5 12682521 -4741290 983637050#0 983637050#1 983637050#2 8119016#0 8119016#1 4494926#0 172206444#0 1061889144#0 1061889144#1 1061889146#1 -4494926#3 -4494926#4 4494926#5 4494926#7 4494926#10 -4494926#12 4548297#6 198909236#0 198909236#1 -198909234#0 198909234#1 -198909234#2 -198909234#3 -198909238 12083245#1 236105147 12083247#1 -12083247#1"/>
    </person>
    <person id="1" depart="5.00">
        <walk edges="-672275668#1 -672275667 45568460#1 -24299286#0 -24299286#1 24299266#2 24299266#1 -202737432#2 202737432#3 -202737432#4 -742377812#0 -742377812#1 4745087 198642281#0 198642281#1 45570414 25774329#0 45360506#0 45360504#2 45360504#1 45360504#0 45359065#1 45359065#0 968763898#1 -45359066 -4745089 -968763903#0 4745020#0 -45359294#0 -45359294#1 -45359294#3 -45359293 4745105 388878635 -4745106#1 4745106#0 221119204#5 221119204#4 221119204#3 221119204#2 221119204#1 221119204#0 205819137#6 205819137#5 205819137#2 205819137#1 4644896#3 4644896#2 4644896#1 4644896#0 389802135#6 389802135#5 389802135#4 389802135#3 116370262#1 116370262#0 116370214#0 116370214#4 116370225 749901779 749901778 749901777 749901776 749901775 749901774 -389802134#2 -389802134#3 35066914#0 -12796510 -47171927#0 -11339909 169763432 -4713421#2 -4713421#1 -4713421#0 -972410214 -4713080 -972410213 -144176778#7 -144176778#6 -144176778#5 144176778#4 144176778#3 -144176778#2 -144176778#1 -144176778#0 -4806323#8 -4806323#6 -4806323#4 -4806323#2 -4806323#1 4483407#0 -4483407#1 -4483407#2 -4483407#3 4483407#4 -4483407#5 -203910670#0 -203910670#1 -203910670#2 -203910670#3 -203910670#4 203910670#5 -203910670#6 203910670#7 -203910670#8 -203910670#9 -203910670#10 -203910670#14 -203910670#17 203910670#18 -203910670#19 -203910670#20 203910670#21 -203910670#22 -203910670#23 -203910670#24 -203910670#25 -203910670#26 -203910670#27 -203910670#28 -203910670#29 -203910670#30 -366559801 279242546#1 279242546#2 -279242546#3 931403398 162481139#16 162481139#15 162481139#14 -162481139#13 162481139#12 162481139#11 162481139#10 162481139#8 162481139#6 4564975#0 -4564974#1"/>
    </person>
    <person id="2" depart="10.00">
        <walk edges="4548426#3 4548426#2 4548426#1 -4548426#0 1102403762 -24299866#1 24299866#2 -24299866#3 24299866#5 -24299866#6 -24299866#7 -24299866#8 -24299866#9 -24299866#11 24299866#12 -24299866#13 24299866#14 -24299866#15 -24299866#16 -24299866#18 -24299866#19 -24299866#20 -24299866#21 24299866#22 24299866#23 372448044#0 372448044#1 -479761373#0 479761373#1 24299875#3 24299875#2 24299875#0 -24299938#0 -24299938#1 -24299938#2 24299938#3 -24299938#4 24299938#5 -24299940 -24299939#0 -24299939#1 -689884609#0 689884609#1 689884609#2 689884613 689884614 -689884615 24299983#5 45683781 243576617 243576619 302868888#4 302868888#3 366484054#2"/>
    </person>
    <person id="3" depart="15.00">
        <walk edges="8073953#0 8073953#5 8073958 8073959#1 101999826 -4677570#1 -220389377 -117380600 -4677562#0 -129952680 233537356#0 723613775#1 25739963#3 25739963#4 -4494926#1 172206444#0 172206444#1 172206444#2 4844450#0 -4677446#1 172206441 -58648676#7 -58648676#6 -58648676#5 -58648676#4 58648676#3 58648676#2 -58648676#1 58648676#0 -4638062#3 -4638062#2 4638062#1 -4638062#0 -4981556#4 -4981556#3 -4981556#1 -4981556#0 -1088915061 -20448005#0 -20448005#1 -20448005#2 -20448005#3 -20448005#4 -20448005#6 -20448005#7 744750261#0 744750261#1 744750261#2 744750260#1 1106121183#4 1106121183#3 307803060#1 1106121183#1 744750269 744750270 744750271 744750272 23605442#1 23605432 23605433#0 23605423#0 23605423#1 23605423#2 -23605426 -78334965#2 121929414#5 121929414#4 121929414#3 121929405#0 121929405#1 45073628#3 20279770#3 -20279770#2"/>
    </person>
    <person id="4" depart="20.00">
        <walk edges="119502498#7 119502498#6 -119502498#5 -119502498#4 -119502498#3 119502498#2 -119502498#1 -119502498#0 133659408#1 -23324662#2 -119502500 119502495#0 119502495#1 119502495#2 22492187#0 586855863 586848225 4602140 586848215 -28776340#25 45407003 220157643#0 -24317008#2 24317008#1 151427223#1 151427352#1 -28776340#17 28776340#16 -28776340#14 -28776340#13 28776340#12 28776340#11 -28776340#10 -28776340#9 28776340#8 28776340#7 -28776340#6 28776340#5 -28776340#4 -28776340#3 -28776340#2 28776340#1 -4494926#23 -4494926#22 -4494926#20 -4494926#18 -4494926#17 4494926#16 4494926#15 -4494926#14 4494926#13 -4494926#12 4494926#10 4494926#7 4494926#5 -4494926#4 -4494926#3 1061889146#1 1061889144#1 1061889144#0 172206444#0 4494926#0 8119016#1 8119016#0 983637050#2 983637050#1 983637050#0 -4741290 -83607382#8 83607382#6 83607382#5 731204880 731204879 731204878 731204873#1 731204873#2 731204872#0 -77670352#0 77670352#1 1089451382#0 1175931569#0 1175931570#0 1175931568#1 262604451 386617898#1 386617898#0 4760219 431750720 -124905887#0 -4521172 4995802#4 -4995802#3 134416013 134416014 134416024#1 134416024#2 134416024#3 134416024#4 134416024#5 -14591302#1 -14591302#2 -77669301#1 -77669301#0 -8104173#2 -8104173#1 -5204135#0 -11339912#1 -11339912#0 9788059#2 9788059#1 4741295#11 4741295#10 10111727#1 10111727#0 -10111716#7 10111716#6 10111716#5 -10111716#4 10111716#3 10111716#2 10111716#1 10111716#0 -10111713#9 -10111713#8 -10111713#5 -10111713#4 -10111713#3 -10111713#2 -10111713#1 -10111713#0 8104178#4 8104178#0 8104178#1 440974650#9 440974646#0 440974648#7 440974648#6 440974648#5 440974648#4 440974648#3 440974648#2 440974648#1 440974648#0 8104179#12 440974644#0 133868752 -9873607#4 -9873608#2 -9873608#3 -9873608#4 -9873608#5 -9873608#6 9873608#7 -9873608#9 -9873608#10 -9873608#11 -9873617 -9053229#0 -9053229#1 133615944 25844950#4 133615968#7 133615948#0 133615948#1 133615948#2 133615939 133615981#0 9048032#2 -8752502#1 -1080703518 -1024543888 8752508 -8752504 -8752500#1 8752500#2 232836120 23219484 -8104379#5 -8104379#4 -8104379#3 -8104379#2 -8104379#1 -8104379#0 -4592199#8 -4592199#7 -4592199#6 -4592199#5 -4592199#4 -4592199#2 -4592199#1 -4592199#0 -45587335#0 4717450#10 4717450#9 4717450#8 204735909#5 -204735909#4 4648625 8029307 -132544338#0 -132544338#1 -132544338#2 132544338#3 -132544338#4"/>
    </person>
    <person id="5" depart="25.00">
        <walk edges="-45460145 -28379992#12 28379992#13 -28379992#14 -202737431#1 202737431#2 -974404842 974404841 -168901489 -974404843 168901488#0 168901488#1 168901488#2 -168901488#3 168901488#4 -37802142#1 -37802142#2 -37802142#3 -37802142#4 -37802142#5 -37802142#6 -37802142#7 -37802142#8 -37802142#9 -37802142#10 37802142#11 330129508#0 -330129508#1 -330129508#2 330129508#3 166140940 -37802141#0 -37802141#1 -37802141#2 -37802141#3 -37802141#4 -37802141#5 -37802141#7 143734635#6 -143734635#5 143734635#4 143734635#3 143734635#2 -143734635#1 -143734635#0 1100617061 -30880047#1 -30880047#0 229244583#2 229244583#1 -229244583#0 30880078#0 -30880078#1 143734647#0 143734647#1 -30880116#6 -30880116#2 30880116#1 1116314513 143734673 72873650#2 72873650#1 30879835#0 30879835#1 30879834#4 30879834#3 30879834#2 30879938 -30879962#0 -30879962#1 -30879960#3 -209246299#4 -178065170 -940159536#0 -940159536#1 182555787"/>
    </person>
    <person id="6" depart="30.00">
        <walk edges="-123768751#4 891964344 123768747#0 123768742 1116735103 1116735102 1116735100#1 -755924305#2 755924305#1 755924305#0 755924304 -879679585 22731318#2 22731318#1 22731318#0 22731317#3 22731317#4 22731317#0 -30880200#0 30880200#1 -30880203#0 177822244#1 100538338#0 889980345#0 1100617068#1 -891957415#1 1000674566 554903310#0 -554903310#1 -554903310#2 -554903310#3 -554903310#4 -554903310#5 -554903310#6 -554903310#7 -554903310#8 889975987#0 -889975987#1 -889975987#2 -889975987#3 1000105317 889984806#1 889984806#2 889984800#0 889984800#1 889984800#2 890778751 -26303876 -26303875 26303874#3 1155343540 1155343539 1155343541#0 1155343541#1 1155343547 1155343542#0 1155343542#1 1155343546 1155343543 26303873 -26303872 20279746#3 20279746#2 -20279746#1 -20279746#0 210429351#1 210429351#0 -45051111#1 -45051111#0 -28380058#0 -28380058#1 -28380058#2 185136473 185136472 45074530 37607624#0 37607624#1 225910569 892574652#4 892574652#3 892553114#3 892553114#2 894981821#2 987846921 892553107 4483893#0 -381202306#1 -381202306#0 -381202305#0 -381202305#1 -381202305#2 13444211#1 13444211#0 -13444210#1 -13444210#0 45885962 23381503 751643927#0 50814409#1 50814409#0 388941803#5 1080363297#10 193393335#1 193393335#0 -24375800#0 -24375800#1 45051068#0 45051068#1 45051068#2 202744706#0 202744706#1 202744706#2 39891023#0 77647207 116739658#2 116739658#1 116739645 116370262#1 389802135#2 42205107#1 42205107#0 777742066#0 777742066#1 454051240#0 41863458 -41863458"/>
    </person>
    <person id="7" depart="35.00">
        <walk edges="30832441#3 -30832441#4 -30832441#5 30832441#6 -30832441#7 30832457#1 30832414#5 249287055#1 249287055#0 -145289512#0 145289512#1 -145289512#2 1184484596 209281892#0 209281893 209281891#0 151120301#0 151120301#1 30879055#1 250479796#9 250479796#8 250479796#7 -250479796#6 250479796#5 250479796#4 250479796#3 250479796#2 250479796#1 -250479796#0 30878942#3 30878942#2 30878942#0 30878936 45490890#6 45490890#5 -45490890#4 45490890#3 -45490890#1 45490893 45490894 45490896 -24325203#0 374975169#9 374975169#8 374975169#7 374975169#6 374975169#5 374975169#4 -374975169#3 374975169#2 -374975169#1 374975169#0 4904407#2 4904407#1 -4904407#0 -4904404 -45073137 24324664#25 24324664#24 24324664#23 30880308#0 -30880308#1 30624744#18 -30624744#17 162444466#0 162444466#1 12118657#1 -12118657#2 166710457#0 -30880531#3 30624757#1 12118656#0 30624754 30624755 30624756#0 32533668 32533670 -202753994#4 -202753994#5 -4475800#0 -4475800#1 -4475800#2 -4475800#3 -4475800#4 -4475800#5 -4570919#5 -4570919#4 -4515797#0 4515797#1 -4570924#6 -4515795#0 -4515795#1 -4515795#2 4515795#3 4515795#4 -4515795#5 4515795#6 -4515795#7 99798487#0 99798487#1 4515806#0 -4515806#1 4515806#2 -106787719#0 -106787719#1 106787716#0 106787716#1 -106787716#2 106787716#3 106787716#4 -106787716#5 4548377#1 988973575#1 988973575#0 200977137 988973574#1 988973574#0 208123507"/>
    </person>
    <person id="8" depart="40.00">
        <walk edges="-4548377#10 -4548377#11 101262451#8 101262451#7 101262451#6 101262451#5 -101262451#4 101262451#3 -101262451#2 16682258#0 16682258#1 160463961#1 160463961#2 -12083242#1 12083242#0 151427224#1 207228644#0 101262447#0 101262445#1 -101262445#0 117380599 101999829 -233537357 8073954#0 8073954#5 8073954#4 4677567#1 4677567#0 4677563#0 -429749785#0 129952682#4 129952682#3 129952682#2 129952682#1 129952682#0 983092063#1 983092063#0 983092062#0 983092055 983092056 387594746#1 387594746#0 -595322020#0 -1097150694 -4521173 -132741010#1 -132741010#0 4614747 -431732039#3 1111611018 133902374#1 -133902374#0 14592025#1 1111611019 431732039#1 24245921#6 -24245921#5 -24245921#4 24245921#4"/>
    </person>
    <person id="9" depart="45.00">
        <walk edges="58169416 726172047 45073977#1 45073977#0 4548200#4 982371441#0 45267135#1 982371441#2 -4548200#0 262604451 386617898#1 386617898#0 4760219 431750720 -124905887#0 -4521172 4995802#4 -4995802#3 -4995802#2 -4995802#1 4995802#0 -995975739 -995975737#1 -995975737#0 -995975738#2 -995975735#0 -995975736#2 -995975736#1 -995975736#0 -4995801#2 -4995801#1 -4995801#0 995975734 1127840645#0 485744474#3 144176774#5 144176774#6 144176774#7 144176774#8 144176774#9 144176774#10 42250357#5 -42250357#4 -42250357#3 42250357#2 42250357#0 385305539 739539654#1 -739539654#0 389376587#0 4483407#0 -4483407#1 -4483407#2 -4483407#3 4483407#4 -4483407#5 -203910670#0 -203910670#1 -203910670#2 -203910670#3 -203910670#4 203910670#5 -203910670#6 203910670#7 -203910670#8 -203910670#9 -203910670#10 -203910670#14 -203910670#17 203910670#18 -203910670#19 -203910670#20 203910670#21 -203910670#22 4483821#0 -4483821#1 -4483821#2 -1030346691"/>
    </person>
    <person id="10" depart="50.00">
        <walk edges="556299876#0 -59986751#0 60046440#3 60046440#2 -60046440#1 60046440#0 -25946485 -25946488#0 -25946488#1 59965319 59965320#0 59965320#1 4483408#0 -4483408#1 -4483408#4 571480486#1 571480485#0 571480485#1 -571480485#2 225017489#1 -225017489#2 -225017493#1 225017493#2 225017493#3 225017493#4 -225017493#5 739539656#0 739539656#1 -655090871 -655090874 739539655#2 739539655#0 389376587#1 156998227 -41483074#2 -41483074#0 41483072#1"/>
    </person>
    <person id="11" depart="55.00">
        <walk edges="-891929680 -891929679#4 891929679#5 891929679#6 891929679#0 -1021459833#0 -1021459833#1 169761212#2 169761212#1 -169761212#0 -23105638 23105624#1 4713083 -5204140#0 -5204140#1 164087246#1 164087246#3 -164087246#4 412177235#1 412177235#3 412177235#4 -8073108#1 8073108#2 93269804#0 -93269804#1 534200273#1 534200273#0 35066923 35066922#0 -35066921 41863458 454051240#0 777742066#1 777742066#0 42205107#0 42205107#1 -112804960#0 -5171322#2 -5171322#1 5171322#0 -203955671#0 -131860123#1 -131860123#0 41863459#0 8751900#2 -23802666#0 -23802666#1 -23802666#2 23802666#3 -23802666#4 23802666#5 266253852 -23706686#0 -139718604#0 -139718604#1 139718604#2 -139718604#4 139718604#6 -969769502 -16282110#0 727426069 543045847#1 543045847#0 429651445#4 -52128827#1 -52128827#0 -101987067 -176982395#14 -176982395#12 -176982395#11 -176982395#10 -176982395#9 -176982395#8 -5363038#3 -5363038#2 -5363038#0 8074873 1173137768#0 8074863 8074867 19733155 19733160#2 19733163#0 19733163#1 26713503#0 26713503#1 26713503#2 8074862 24041668#0 24041668#1 4295443#2 4295443#3 4295443#4 42680635#5 6537963 6537966#10 -6537966#9 6537966#8 -6537966#7 6537966#6 -6537966#5 -26623809#5 -26623809#4"/>
    </person>
    <person id="12" depart="60.00">
        <walk edges="897250352#4 -897250352#3 205664350#0 131225792#6 131225792#5 -131225792#3 45406911 45406895#0 -45406895#1 162222960 158371794#13 158371794#12 131225792#0 158371794#10 158371794#9 -158371794#8 158371794#7 158371794#6 158371794#5 -158371794#4 158371794#3 -158371794#2 158371794#1 -158371791#8 -158371791#7 -158371791#6 -158371791#5 -158371791#4 158371791#3 -158371791#1 4548298#5 -4548298#4 4548298#3 -4548298#2 -4548298#1 4548298#0 4548199#0 -4548199#1 -4844455#3 4844455#2 4844455#0 4494926#7 4494926#5 -4494926#4 -4494926#3 1061889146#1 1061889144#1 1061889144#0 172206444#1 172206444#2 4844450#0 -4677446#1 172206441 -58648676#7 -58648676#6 -58648676#5 -58648676#4 58648676#3 58648676#2 -58648676#1 58648676#0 4677320#1 4677320#0 58169416 4787475#0 -145781025 4787473#0 198044378#2 -198044378#1 -198969727#1 198642280#1 -198642280#0 -4627827 -47168897#0 -47168897#1 204790849 45051130 892553115 987846923 892553116#1 892553116#0 892553118 894981818 894981816#3 894981816#4 892553114#2 894981821#2 987846921 892553108#0 892553110 892553112 -4787502#1 -4787502#2 4787504 177621729#0 177621731 177621727#1 177621732 388878072 381202308#3 381202308#4 381202309#0 381202309#1 381202309#2 381202309#3 381202309#4 381212407#0 381212407#1 209263690#1 -209263690#0 1136445706#1 1136445706#0 4827884#0 164500951 1047548239#1 679761827 116508841#0 202830393 4904187#0 4904147 -45359120#0 -45359120#1 -45359120#2 -45359120#3 45359120#4 4904150#2 -4904150#1 85145099#3 -489409930 -489409929#0 489409929#1 4904184#6 4904184#7 -45360504#2 45360506#0 25774329#0 45570414 198642281#1 198642281#0 4745087 -742377812#1 -742377812#0 -202737432#4 202737432#3 -202737432#2 -202737432#1 -202737432#0 202737433#1 209249182#14 -209249182#13 209249182#12 -209249182#11 209249182#10 -209249182#9 209249182#8 -209249182#7 -209249182#6 -209249182#5 -209249182#4 -209249182#3 -209249182#2 -209249182#1 -209249182#0 4701544#1 -4701544#0 -6182153#1 6182153#0 -6182152#1 6182152#0 -1103797413 -6182158#15 -6182158#14 -6182158#12 -6182158#11 -6182158#10 -198648001#4 198648001#2 930330923 859078399#0 859078399#1 859078399#2 859078388#0 859078388#1 859078389#0 859078389#1 859078389#2 859078389#3 859078389#4 859078389#5 859078386#1 82395178#4 -82395178#5 859078389#8 859078289#1 859078289#4 859080019#2 859860551#0 859860551#1 859860557#3 859860552#0 859860552#1 859860555#4 859860555#5 859860555#6 859860555#7 -28265754#3 -18099429#0 18099429#2 28265574 -31107769#0 -758380742 -886945818 -886945817"/>
    </person>
    <person id="13" depart="65.00">
        <walk edges="-208046019#0 -208046019#1 25729152#0 25729152#1 25729152#2 25729152#3 -25728590#1 25728590#0 27775973#1 27775987#0 27775987#1 27775987#3 18096394#2 45759365 18096401#5 18096401#4 -18096401#3 18096401#1 -18096401#0 45838680 -18096396#6 -176982395#0 -176982395#2 -176982395#3 -176982395#4 -176982395#6 -176982395#7 -176982395#8 -176982395#9 -176982395#10 -176982395#11 -176982395#12 -176982395#14 -101987067 -52128827#0 -52128827#1 429651445#4 543045847#0 543045847#1 727426069 -16282110#0 -969769502 139718604#6 -139718604#4 -139718604#2 139718604#1 -139718604#0 23706686#0 266253852 -23802666#5 23802666#4 23802666#3 -23802666#2 23802666#1 -23802666#0 8751900#2 41863459#0 -131860123#0 -131860123#1 -203955671#0 -90682376 -205819136 -201700815 -1003917173 -4953265 -4953267#1 -4953267#0 26403932 4474113#0 4474113#1 28776351#1 28776351#2 28776351#3 28776351#4 4494911#0 4494911#1 4494911#2 4494911#3 4494911#4 -4494912#0 -4494912#1 4494912#2 -4494912#3 -4494912#4 -4494912#5 12682521 162901771#0 491305324#2 491305324#1 491305324#0 28891696 28891695#2 102147604#0 -102147604#1 -4548199#3 4548199#2 -4548199#1 4548199#0 4548298#0 -4548298#1 -4548298#2 4548298#3 -4548298#4 4548298#5 -158371791#1 158371791#3 -158371791#4 -158371791#5 -158371791#6 -158371791#7 -158371791#8 -233537358 232836167#1 232836167#0 4750214#5 -4750214#4 4750214#3 4750214#2 4750214#1 -4750214#0 -4750216#0 4750216#2 20906537#14 -20906537#13"/>
    </person>
    <person id="15" depart="75.00">
        <walk edges="55959723#1 55959724 4564971#5 4564971#4 4564971#3 4564971#2 -4564971#0 -294060697#1 -294060697#2 -294060697#3 294060697#4 -294060697#5 -586660339#0 8157354#0 -8157354#1 -8157354#2 -8157354#4 -4995729#3 4483821#9 4483821#8 4483821#4 4483821#3 4483821#2 -4483821#1 4483821#0 -203910670#22 203910670#21 -203910670#20 203910670#19 203910670#18 -203910670#17 203910670#14 203910670#10 -203910670#9 -203910670#8 203910670#7 -203910670#6 203910670#5 203910670#4 203910670#3 203910670#2 -203910670#1 -203910670#0 -4483407#5 4483407#4 -4483407#3 -4483407#2 -4483407#1 4483407#0 -4806323#1 -4806323#2 -4806323#4 -4806323#6 -4806323#8 -144176778#0 -144176778#1 -144176778#2 144176778#3 144176778#4 -144176778#5 -144176778#6 -144176778#7 -972410213 -4713080 -972410214 -4713421#0 -4713421#1 -4713421#2 169763432 -11339909 -47171927#0 -12796510 35066914#0 -389802134#3 -389802134#2 749901774 749901775 749901776 749901777 749901778 749901779 116370225 116370214#4 116370214#0 116370262#0 116370262#1 389802135#3 389802135#4 389802135#5 389802135#6 4644896#0 4644896#1 4644896#2 4644896#3 205819137#1 205819137#2 205819137#5 205819137#6 221119204#0 221119204#1 221119204#2 221119204#3 221119204#4 221119204#5 4745106#0 4745106#1 388878635 4745105 -45359293 45359294#3 45359294#1 45359294#0 -4745020#0 968763903#0 444472194 384185253 -384186891#0 589982090 4745043 -4745044 -4745136#6 -4745136#8 45358383#0 -45358383#1 45358379"/>
    </person>
    <person id="16" depart="80.00">
        <walk edges="20279777 -732295445#4 -20279753#0 20279753#1 -20279753#2 -677579396#1 20279754 -4839473#1 23862999 121929410#3 674531626 167639657 -23862998#2 45839039#3 45839039#2 45839039#1 45839039#0 -59738303 -188948807#0 23862995#0 463312837#1 -1103822694 156536760#2 -156536760#1 -1097150695#2 1097150695#1 -1097150696#0 -202753993#5 -202753993#4 -202753993#3 -202753993#2 -202753993#1 -202753993#0 -4628071#4 -4628071#2 -4628071#1 -4628071#0 -202753992#0 4627857#4 4627857#3 4627857#2 4627857#1 4627857#0 26350821 4627858 1119876068 -1119876067 123907361 122443234#0 -122443234#1 122443234#2 -147995566#0 147995566#1 -187713558 -4853105#0 -4853105#1 -4853105#2 -4853105#3 -198909238 12083245#0 151433716#1 -151433716#0 12083242#4 -12083242#3 12083242#2 -12083242#1 12083242#0 151427224#1 207228644#0 101262447#0 -4548298#1 -4548298#2 4548298#3 -4548298#4 4548298#5 -158371791#1 158371791#3 -158371791#4 -158371791#5 -24316694#0 -24316694#1 -24316694#2 -24316694#3 169765593#0 10682393#1 160552723#0 160552723#1 24300160#1 -45103741#0 -45103741#1 -5203957#11 5203957#10 5203957#9 -5203957#8 5203957#7 -5203957#6 -5203957#5 5203957#3 5203957#2 942566887#1 942566892#1 1006229996 -218601545#1 218601545#2 -218601545#3 218601545#4 -24299956#3 941166206#8 941166206#7 941166206#6 941166206#5 941166206#4 941166206#3 941166227 941166207#2 941166207#3 941166206#1 941166206#0 -24299962#1 942029002#1 942029001#8"/>
    </person>
    <person id="17" depart="85.00">
        <walk edges="1026853105#3 -1026853105#3 1026985774 -32661526 -10112405#4 -10302304#0 198962607#5 -198962607#6 695615932 -996957029 -996957030#0 996957030#1 -4564987#0 -4564987#1 -4564987#4 -4564987#5 -4564987#6 -4564987#7 4564987#8 4713443#1 -294060698 -4564986#0 -4564986#1 -586660339#0 8157354#0 -8157354#1 -8157354#2 -8157354#4 -4995729#3 4483821#9 4483821#8 4483821#4 4483821#3 4483821#2 -4483821#1 4483821#0 -203910670#22 203910670#21 -203910670#20 203910670#19 203910670#18 -203910670#17 203910670#14 203910670#10 -203910670#9 -203910670#8 203910670#7 -203910670#6 203910670#5 203910670#4 203910670#3 203910670#2 -203910670#1 -203910670#0 -4483407#5 4483407#4 -4483407#3 -4483407#2 -4483407#1 4483407#0 389376587#0 -739539654#0 739539654#1 385305539 42250357#0 -42250357#2 -42250357#3 -42250357#4 42250357#5 144176774#10 144176774#9 144176774#8 144176774#7 144176774#6 144176774#5 485744474#3 1127840645#0 204867806#1 204867807 431732045 -132741018#3 431732039#1 1111611019 -14592025#1 -133902374#0 -133902374#1 1111611018 -431732039#3 4614747 -132741010#0 -132741010#1 -4521173 -1097150694 -595322020#0 -595322020#1 1175931585#6 1175931576#0 595322020#3 -83607382#0 83607382#1 -83607382#2 83607382#3 83607382#5 83607382#6 -83607382#8 -4741290 -4494913#0 -4494913#1 -4494913#2 -4494913#3 -4494913#4 -4494913#5 4494913#6 -4494913#7 -4494913#8 -4494913#9 -4494913#10 -4494913#11 -4494913#12 685023881#0 685023881#1 -685023881#3 -4475203#0 1097150695#1 -1097150695#2 -156536760#1 156536760#2 -164500948#0 -239811653 -706496749#0 -706496749#1 -706496749#2 -250475790#0 250475790#1 8073060 55668651 -478849145#0 478849145#1 478849147 55668652#0 55668652#2 55668652#3 55668652#4 -895933692 -895933691 -45494613#1 485899790#1 485691995#0 417625399#1 417625399#0 30880234#1 100536876#1 100536876#0 889980345#1 889980345#0 1100617068#1 250475811#4 467797310#1 467797310#2 467797310#3 467797310#4 45362193#1 467797315#0 467797315#1 174645907#4 -467797320#0 -467797320#1 -467797320#2 133531853#1 30880162 33508807#1 33508807#0 33508808 143734635#4 143734635#3 143734635#2 -143734635#1 -143734635#0 1100617061 -30880047#1 -30880047#0 229244583#2 229244583#1 -229244583#0 30880078#0 -30880078#1 143734647#0 143734647#1 -30880116#6 -30880116#2 30880116#1 1116314513 143734673 72873650#2 72873650#1 30879835#0 30879835#1 -72873663#0 -72873663#1 -72873663#3 -72873663#4 -209246298#0 -209246298#1 29075877#0 209281891#7 209281891#6 209281891#5 209281891#3 209281891#2 209281891#1 209281891#0 209281889#1"/>
    </person>
    <person id="18" depart="90.00">
        <walk edges="660841449#1 -4287345#3 4287345#1 4287345#0 -101987067 -176982395#14 -176982395#12 -176982395#11 -176982395#10 -176982395#9 -176982395#8 -5363038#3 -5363038#2 -5363038#0 8074873 1173137768#0 1173137768#1 -19733176#0 -19733176#1 -19733176#2 -19733176#3 -19733176#4 48132008#0 -48132008#1 -26949469 -180018687#0 8074858 8074860 26713602 13517529 4295443#7 26954014 -26954021#0 26412122#0 26412122#1 -26412122#2 36068618#0 132677020#1 132677020#0 24729410#2"/>
    </person>
    <person id="19" depart="95.00">
        <walk edges="732972958#1 19080627#1 19080627#0 19080625 4865989 6906489#1 187025538 -4411863#2 -4411863#4 4411891#0 4411891#1 -45361565#0 134836486 259587218#0 1080657196 45361565#2 128193720 -4301352#1 -4301352#2 939539205#0 26952256#2 26952256#1 26952256#0 -19785216#1 -19785216#0 19785214#3 19785214#4 19785214#5 -28263068#0 -28263068#1 -28263074#0 -28263074#1 -24299106 -210876963#3 210876963#2 -136485847 212545786#0 -146912723 212545795#4 24299103#1 177450945#5 177450945#4 859078296#1 859078496#14 859078496#15 859078496#16 859078496#17 859078496#18 859078496#19 859078496#20 859078496#21 859080016#3 859080016#0 859078572#76 859078572#75 859078572#74 859078572#73 859078572#72 859078572#71 859078572#70 859078572#69 859078572#68 859860564#0 859860564#1 859860585#9 859860585#8 859860585#7 859860585#6 859860553#3 859860553#5 859860557#8 859860557#7 859860557#6 859860557#5 859860557#4 859860552#0 859860552#1 859860555#4 859860555#5 859860555#6 859860555#7 -28265754#3 28265754#1 -28265754#0 -28265753 18121983 55625392 144597758#6 144597758#5 144597758#3 -144597758#2 144597758#1 52011314 24298979#9 -24298979#8 24298979#7 24298979#6 24298979#5 52011730 -144597764#5 -144597764#6 -144597766#0 -144597766#1 -144597766#2 -144597766#3 -974849858 -133550892 133550883 -199095255#1 1005540772 1005540773 1005540774 -1005540771#0 1001504743 494012474#0 1005540776 1005540777 -80367783#3 754538216#0 1001504741#1 1001504741#0 1005547845 1005547847 1005547846 1005547848#0 1005547849 1005547850 1005547857 1005556038#1 1005556038#0 1005556039 1001504740#1 1001504740#0 -727974853#4 -727974853#3 23314867#1"/>
    </person>
    <person id="20" depart="100.00">
        <walk edges="4244251 475101398 475101400#1 31546988 -11480917#1 -11480917#0 -11480918 -656254486#0 656254486#1 -656254486#2 -656254486#3 -656254486#4 656254486#5 -656254486#6 993269710 142418483#0 142418483#5 142418483#4 142418483#3 656254486#10 656254486#11 -257189217#0 -257189217#2 -985983949 204735908#1 204735908#0 -985861987#4 -985861987#2 985861987#1 -985861987#0 985983950 -985983951 -985983952#1 -985983952#0 -255159951#6 -255159951#5 -255159951#4 -255159951#3 -255159951#2 -255159951#1 -255159951#0 -985983957 -985983958 -985861988#2 -985861988#1 -985861988#0 985983959 -157732362 -157732375#1 -157732375#0 15536865 985983956#1 -985983956#0 985983954 8104378 985983953 -985983955 4575040#3 4575040#2 4575040#1 70791844#2 70791844#1 70791844#0 -305957023 -734452068#1 -734452068#0 -734452067 226578043 -355543561#1 26555841#0 -26555841#2 -26555841#3 -26555841#6 -26555841#7 26555841#8 26555840 -167636236#0 -167636210 -15413956"/>
    </person>
    <person id="21" depart="105.00">
        <walk edges="-4578441 222709052 -222709056#0 -222709056#1 -222709056#2 222709056#3 -222709050#0 316781590#0 -222709050#2 1080530424 133800152#0 133800152#1 562542875#1 562542875#0 -4287346#0 -4545725#1 990822939#0 -990822937 -990822938 -973334484#1 -973334484#0 -26404121#1 -26404121#0 -973334483#1 -973334483#0 -995103498#1 25566799#1 25566799#0 990822936#2 990822936#1 69067227 389802951#2 389802951#1 389802951#0 203957021#3 8751896#0 727833913#0 -727833913#1 727833913#2 727833913#3 -727833916"/>
    </person>
    <person id="22" depart="110.00">