<?xml version="1.0" encoding="UTF-8"?>

<!-- generated on 2023-07-03 14:35:55.295087 by randomTrips.py v1_18_0+0000-03ecfdea036
<configuration>
    <net-file value="glasgow.net.xml"/>
    <output-trip-file value="ped_trips.xml"/>
    <route-file value="ped_routes.rou.xml"/>
    <pedestrians value="True"/>
    <end value="600"/>
    <period value="5.0"/>
</configuration>
-->

<routes xmlns:xsi="http://www.w3.org/2001/XMLSchema-instance" xsi:noNamespaceSchemaLocation="http://sumo.dlr.de/xsd/routes_file.xsd">
    <person id="0" depart="0.00">
        <walk from="28662101" to="-12083247#1"/>
    </person>
    <person id="1" depart="5.00">
        <walk from="-672275668#1" to="-4564974#1"/>
    </person>
    <person id="2" depart="10.00">
        <walk from="4548426#3" to="366484054#2"/>
    </person>
    <person id="3" depart="15.00">
        <walk from="8073953#0" to="-20279770#2"/>
    </person>
    <person id="4" depart="20.00">
        <walk from="119502498#7" to="-132544338#4"/>
    </person>
    <person id="5" depart="25.00">
        <walk from="-45460145" to="182555787"/>
    </person>
    <person id="6" depart="30.00">
        <walk from="-123768751#4" to="-41863458"/>
    </person>
    <person id="7" depart="35.00">
        <walk from="30832441#3" to="208123507"/>
    </person>
    <person id="8" depart="40.00">
        <walk from="-4548377#10" to="24245921#4"/>
    </person>
    <person id="9" depart="45.00">
        <walk from="58169416" to="-1030346691"/>
    </person>
    <person id="10" depart="50.00">
        <walk from="556299876#0" to="41483072#1"/>
    </person>
    <person id="11" depart="55.00">
        <walk from="-891929680" to="-26623809#4"/>
    </person>
    <person id="12" depart="60.00">
        <walk from="897250352#4" to="-886945817"/>
    </person>
    <person id="13" depart="65.00">
        <walk from="-208046019#0" to="-20906537#13"/>
    </person>
    <person id="14" depart="70.00">
        <walk from="706237725#4" to="24300119#1"/>
    </person>
    <person id="15" depart="75.00">
        <walk from="55959723#1" to="45358379"/>
    </person>
    <person id="16" depart="80.00">
        <walk from="20279777" to="942029001#8"/>
    </person>
    <person id="17" depart="85.00">
        <walk from="1026853105#3" to="209281889#1"/>
    </person>
    <person id="18" depart="90.00">
        <walk from="660841449#1" to="24729410#2"/>
    </person>
    <person id="19" depart="95.00">
        <walk from="732972958#1" to="23314867#1"/>
    </person>
    <person id="20" depart="100.00">
        <walk from="4244251" to="-15413956"/>
    </person>
    <person id="21" depart="105.00">
        <walk from="-4578441" to="-727833916"/>
    </person>
    <person id="22" depart="110.00">
        <walk from="-19785213#0" to="-4677741#2"/>
    </person>
    <person id="23" depart="115.00">
        <walk from="-217197520" to="-677577023#3"/>
    </person>
    <person id="24" depart="120.00">
        <walk from="28072796#1" to="1010182799#3"/>
    </person>
    <person id="25" depart="125.00">
        <walk from="101965782#0" to="-4470839#3"/>
    </person>
    <person id="26" depart="130.00">
        <walk from="-59173145#0" to="863635519#28"/>
    </person>
    <person id="27" depart="135.00">
        <walk from="30624748#1" to="24317490#0"/>
    </person>
    <person id="28" depart="140.00">
        <walk from="-30879367#4" to="4516523#0"/>
    </person>
    <person id="29" depart="145.00">
        <walk from="-29076444#0" to="10302348#2"/>
    </person>
    <person id="30" depart="150.00">
        <walk from="977360527#2" to="28671966"/>
    </person>
    <person id="31" depart="155.00">
        <walk from="218279233#0" to="381202308#3"/>
    </person>
    <person id="32" depart="160.00">
        <walk from="690225509" to="4876092#1"/>
    </person>
    <person id="33" depart="165.00">
        <walk from="-4592199#1" to="-133591082#0"/>
    </person>
    <person id="34" depart="170.00">
        <walk from="-80371227#2" to="-5982151#0"/>
    </person>
    <person id="35" depart="175.00">
        <walk from="-4476040#3" to="88364154"/>
    </person>
    <person id="36" depart="180.00">
        <walk from="769084582" to="-80334212#1"/>
    </person>
    <person id="37" depart="185.00">
        <walk from="30879719#0" to="1102458170#3"/>
    </person>
    <person id="38" depart="190.00">
        <walk from="858994325#1" to="148001229"/>
    </person>
    <person id="39" depart="195.00">
        <walk from="-585960771#0" to="-4904294#9"/>
    </person>
    <person id="40" depart="200.00">
        <walk from="222437813" to="-55702653#6"/>
    </person>
    <person id="41" depart="205.00">
        <walk from="23816743#0" to="81878770#1"/>
    </person>
    <person id="42" depart="210.00">
        <walk from="1117948581#3" to="-45462133#3"/>
    </person>
    <person id="43" depart="215.00">
        <walk from="996531573" to="187675432"/>
    </person>
    <person id="44" depart="220.00">
        <walk from="-204735910#2" to="-156324312#2"/>
    </person>
    <person id="45" depart="225.00">
        <walk from="-22736759#3" to="26303875"/>
    </person>
    <person id="46" depart="230.00">
        <walk from="5204014#3" to="119802027#0"/>
    </person>
    <person id="47" depart="235.00">
        <walk from="-176818233" to="104486572#1"/>
    </person>
    <person id="48" depart="240.00">
        <walk from="995277997#4" to="199086496"/>
    </person>
    <person id="49" depart="245.00">
        <walk from="939539205#3" to="730248302#0"/>
    </person>
    <person id="50" depart="250.00">
        <walk from="-1088025057#0" to="4470833#4"/>
    </person>
    <person id="51" depart="255.00">
        <walk from="37696583#1" to="203910318#3"/>
    </person>
    <person id="52" depart="260.00">
        <walk from="-59125444#2" to="286745770#1"/>
    </person>
    <person id="53" depart="265.00">
        <walk from="-23105673#0" to="132751168"/>
    </person>
    <person id="54" depart="270.00">
        <walk from="144799296#1" to="892553121#6"/>
    </person>
    <person id="55" depart="275.00">
        <walk from="766725600" to="-56981699#2"/>
    </person>
    <person id="56" depart="280.00">
        <walk from="178061692#0" to="-313694758#1"/>
    </person>
    <person id="57" depart="285.00">
        <walk from="856937210#0" to="754538216#1"/>
    </person>
    <person id="58" depart="290.00">
        <walk from="-747349820#1" to="285877428"/>
    </person>
    <person id="59" depart="295.00">
        <walk from="24317483#1" to="-25739960#1"/>
    </person>
    <person id="60" depart="300.00">
        <walk from="4721901#2" to="203956224#1"/>
    </person>
    <person id="61" depart="305.00">
        <walk from="4904310" to="199576393#1"/>
    </person>
    <person id="62" depart="310.00">
        <walk from="-1004113664#1" to="-82739043#19"/>
    </person>
    <person id="63" depart="315.00">
        <walk from="-11631563#3" to="863166879"/>
    </person>
    <person id="64" depart="320.00">
        <walk from="77670349#1" to="672817317#1"/>
    </person>
    <person id="65" depart="325.00">
        <walk from="-78409769" to="-168894961#0"/>
    </person>
    <person id="66" depart="330.00">
        <walk from="77648164#0" to="889984798#1"/>
    </person>
    <person id="67" depart="335.00">
        <walk from="-202753994#15" to="169761258"/>
    </person>
    <person id="68" depart="340.00">
        <walk from="-18096399#1" to="4713109#1"/>
    </person>
    <person id="69" depart="345.00">
        <walk from="47464311#1" to="-24298902#3"/>
    </person>
    <person id="70" depart="350.00">
        <walk from="162444469" to="209245917#0"/>
    </person>
    <person id="71" depart="355.00">
        <walk from="-58649458" to="757049469"/>
    </person>
    <person id="72" depart="360.00">
        <walk from="120152301#1" to="-4494526#0"/>
    </person>
    <person id="73" depart="365.00">
        <walk from="203956091#0" to="45358928#0"/>
    </person>
    <person id="74" depart="370.00">
        <walk from="-4287345#5" to="-802341481"/>
    </person>
    <person id="75" depart="375.00">
        <walk from="990621122" to="30832441#2"/>
    </person>
    <person id="76" depart="380.00">
        <walk from="133615945" to="191448302#0"/>
    </person>
    <person id="77" depart="385.00">
        <walk from="-23948645#7" to="-45689255#0"/>
    </person>
    <person id="78" depart="390.00">
        <walk from="-889992474#5" to="24232511#0"/>
    </person>
    <person id="79" depart="395.00">
        <walk from="-4638059#1" to="-4548321#1"/>
    </person>
    <person id="80" depart="400.00">
        <walk from="-182738842#3" to="26722464#5"/>
    </person>
    <person id="81" depart="405.00">
        <walk from="-4592198#1" to="832128805"/>
    </person>
    <person id="82" depart="410.00">
        <walk from="72873663#4" to="-182588588#1"/>
    </person>
    <person id="83" depart="415.00">
        <walk from="-4745019#6" to="33508809#2"/>
    </person>
    <person id="84" depart="420.00">
        <walk from="-45074756#0" to="-24299866#15"/>
    </person>
    <person id="85" depart="425.00">
        <walk from="863635416#1" to="22752435#0"/>
    </person>
    <person id="86" depart="430.00">
        <walk from="161130112#0" to="49772253"/>
    </person>
    <person id="87" depart="435.00">
        <walk from="56981698" to="-37695833#1"/>
    </person>
    <person id="88" depart="440.00">
        <walk from="-20906799#1" to="131225792#3"/>
    </person>
    <person id="89" depart="445.00">
        <walk from="12083241#3" to="156861061"/>
    </person>
    <person id="90" depart="450.00">
        <walk from="4516522#3" to="355529744#3"/>
    </person>
    <person id="91" depart="455.00">
        <walk from="968763898#0" to="-209248563#3"/>
    </person>
    <person id="92" depart="460.00">
        <walk from="1136445704#1" to="-890920815#1"/>
    </person>
    <person id="93" depart="465.00">
        <walk from="732967957#2" to="-493901807"/>
    </person>
    <person id="94" depart="470.00">
        <walk from="-376587847#3" to="14103683#5"/>
    </person>
    <person id="95" depart="475.00">
        <walk from="119502498#5" to="-679553332#0"/>
    </person>
    <person id="96" depart="480.00">
        <walk from="-49710281#1" to="859078572#82"/>
    </person>
    <person id="97" depart="485.00">
        <walk from="133917373#4" to="731982378"/>
    </person>
    <person id="98" depart="490.00">
        <walk from="209247058#0" to="-158514139#0"/>
    </person>
    <person id="99" depart="495.00">
        <walk from="997592563#2" to="686212261#2"/>
    </person>
    <person id="100" depart="500.00">
        <walk from="934977062" to="859860585#1"/>
    </person>
    <person id="101" depart="505.00">
        <walk from="708081824#1" to="-30726738"/>
    </person>
    <person id="102" depart="510.00">
        <walk from="169761212#1" to="-45073629#5"/>
    </person>
    <person id="103" depart="515.00">
        <walk from="1119896665" to="-169761212#1"/>
    </person>
    <person id="104" depart="520.00">
        <walk from="1028335028" to="9702766#3"/>
    </person>
    <person id="105" depart="525.00">
        <walk from="-586660339#6" to="49748085#2"/>
    </person>
    <person id="106" depart="530.00">
        <walk from="14592025#1" to="120152293#0"/>
    </person>
    <person id="107" depart="535.00">
        <walk from="897250352#9" to="991755423"/>
    </person>
    <person id="108" depart="540.00">
        <walk from="213869560#2" to="4411916#0"/>
    </person>
    <person id="109" depart="545.00">
        <walk from="-26412122#1" to="-741653869"/>
    </person>
    <person id="110" depart="550.00">
        <walk from="934338954#1" to="233558613#0"/>
    </person>
    <person id="111" depart="555.00">
        <walk from="205664350#0" to="45839056#2"/>
    </person>
    <person id="112" depart="560.00">
        <walk from="-167854512#0" to="23816694#1"/>
    </person>
    <person id="113" depart="565.00">
        <walk from="179689731#4" to="7277323#1"/>
    </person>
    <person id="114" depart="570.00">
        <walk from="-275118488#2" to="909240973#0"/>
    </person>
    <person id="115" depart="575.00">
        <walk from="-19785782#2" to="-355557035#1"/>
    </person>
    <person id="116" depart="580.00">
        <walk from="24289403#3" to="36076071#1"/>
    </person>
    <person id="117" depart="585.00">
        <walk from="-4713087#16" to="-23844465"/>
    </person>
    <person id="118" depart="590.00">
        <walk from="80338840" to="-4904150#2"/>
    </person>
    <person id="119" depart="595.00">
        <walk from="24275868" to="24883107#1"/>
    </person>
</routes>
