<?xml version="1.0" encoding="UTF-8"?>

<!-- generated on 2023-04-23 01:11:17 by Eclipse SUMO sumo Version v1_16_0+2297-8a22751c7ec
-->

<configuration xmlns:xsi="http://www.w3.org/2001/XMLSchema-instance" xsi:noNamespaceSchemaLocation="http://sumo.dlr.de/xsd/sumoConfiguration.xsd">

    <input>
        <net-file value="osm.net.xml.gz"/>
        <route-files value="bikes.rou.xml"/>
    </input>

    <processing>
        <lateral-resolution value="0.8"/>
        <tls.actuated.jam-threshold value="30"/>
    </processing>

</configuration>
